107526
  -OEChem-07262316173D

 24 23  0     1  0  0  0  0  0999 V2000
   -0.0176   -1.3519    0.3189 O   0  0  0  0  0  0  0  0  0  0  0  0
   -0.4388    1.2088    1.5932 O   0  0  0  0  0  0  0  0  0  0  0  0
    2.2500    1.3308   -0.6092 O   0  0  0  0  0  0  0  0  0  0  0  0
   -2.3144    0.6445   -1.4872 O   0  0  0  0  0  0  0  0  0  0  0  0
    4.0906   -0.6031    0.0767 O   0  0  0  0  0  0  0  0  0  0  0  0
   -3.0659   -1.5079   -0.1142 O   0  0  0  0  0  0  0  0  0  0  0  0
    0.3471   -0.0924   -0.2555 C   0  0  1  0  0  0  0  0  0  0  0  0
   -0.6452    0.9954    0.1914 C   0  0  1  0  0  0  0  0  0  0  0  0
    1.8171    0.1651    0.1072 C   0  0  1  0  0  0  0  0  0  0  0  0
   -2.1330    0.7333   -0.0781 C   0  0  2  0  0  0  0  0  0  0  0  0
    2.7599   -0.9702   -0.2772 C   0  0  0  0  0  0  0  0  0  0  0  0
   -2.6498   -0.5525    0.5339 C   0  0  0  0  0  0  0  0  0  0  0  0
    0.2588   -0.2053   -1.3428 H   0  0  0  0  0  0  0  0  0  0  0  0
   -0.3684    1.9299   -0.3117 H   0  0  0  0  0  0  0  0  0  0  0  0
    1.9339    0.3780    1.1755 H   0  0  0  0  0  0  0  0  0  0  0  0
   -2.7434    1.5554    0.3115 H   0  0  0  0  0  0  0  0  0  0  0  0
    2.7491   -1.1463   -1.3574 H   0  0  0  0  0  0  0  0  0  0  0  0
    2.5135   -1.9050    0.2347 H   0  0  0  0  0  0  0  0  0  0  0  0
    0.1537   -1.3078    1.2748 H   0  0  0  0  0  0  0  0  0  0  0  0
   -0.6653    0.3906    2.0648 H   0  0  0  0  0  0  0  0  0  0  0  0
   -2.6519   -0.5851    1.6369 H   0  0  0  0  0  0  0  0  0  0  0  0
    2.1591    1.1487   -1.5602 H   0  0  0  0  0  0  0  0  0  0  0  0
   -3.2715    0.6141   -1.6571 H   0  0  0  0  0  0  0  0  0  0  0  0
    4.1126   -0.4767    1.0406 H   0  0  0  0  0  0  0  0  0  0  0  0
  1  7  1  0  0  0  0
  1 19  1  0  0  0  0
  2  8  1  0  0  0  0
  2 20  1  0  0  0  0
  3  9  1  0  0  0  0
  3 22  1  0  0  0  0
  4 10  1  0  0  0  0
  4 23  1  0  0  0  0
  5 11  1  0  0  0  0
  5 24  1  0  0  0  0
  6 12  2  0  0  0  0
  7  8  1  0  0  0  0
  7  9  1  0  0  0  0
  7 13  1  0  0  0  0
  8 10  1  0  0  0  0
  8 14  1  0  0  0  0
  9 11  1  0  0  0  0
  9 15  1  0  0  0  0
 10 12  1  0  0  0  0
 10 16  1  0  0  0  0
 11 17  1  0  0  0  0
 11 18  1  0  0  0  0
 12 21  1  0  0  0  0
M  END
> <PUBCHEM_COMPOUND_CID>
107526

> <PUBCHEM_CONFORMER_RMSD>
0.6

> <PUBCHEM_CONFORMER_DIVERSEORDER>
1
11
38
30
15
16
3
34
14
7
6
24
31
39
13
42
26
32
28
22
5
23
12
37
40
20
10
2
27
29
17
25
41
18
4
8
35
21
36
33
19
9

> <PUBCHEM_MMFF94_PARTIAL_CHARGES>
18
1 -0.68
10 0.34
11 0.28
12 0.45
19 0.4
2 -0.68
20 0.4
21 0.06
22 0.4
23 0.4
24 0.4
3 -0.68
4 -0.68
5 -0.68
6 -0.57
7 0.28
8 0.28
9 0.28

> <PUBCHEM_EFFECTIVE_ROTOR_COUNT>
5

> <PUBCHEM_PHARMACOPHORE_FEATURES>
11
1 1 acceptor
1 1 donor
1 2 acceptor
1 2 donor
1 3 acceptor
1 3 donor
1 4 acceptor
1 4 donor
1 5 acceptor
1 5 donor
1 6 acceptor

> <PUBCHEM_HEAVY_ATOM_COUNT>
12

> <PUBCHEM_ATOM_DEF_STEREO_COUNT>
4

> <PUBCHEM_ATOM_UDEF_STEREO_COUNT>
0

> <PUBCHEM_BOND_DEF_STEREO_COUNT>
0

> <PUBCHEM_BOND_UDEF_STEREO_COUNT>
0

> <PUBCHEM_ISOTOPIC_ATOM_COUNT>
0

> <PUBCHEM_COMPONENT_COUNT>
1

> <PUBCHEM_CACTVS_TAUTO_COUNT>
6

> <PUBCHEM_CONFORMER_ID>
0001A40600000001

> <PUBCHEM_MMFF94_ENERGY>
22.4392

> <PUBCHEM_FEATURE_SELFOVERLAP>
55.85

> <PUBCHEM_SHAPE_FINGERPRINT>
11769659 78 18408601470023866242
12897270 3 18114176423981178861
12932764 1 17458343009384222985
14128692 85 18409171042806029191
14325111 11 18335141994439240804
15775835 57 17676489384862998934
16945 1 18262791844314026449
20201158 50 18412263913128017503
20653085 51 17458350718961432229
21061003 4 17703790331700597001
23552423 10 18333734606480953002
29004967 10 17274829064284364105
3248919 1 18130509643336466508
5084963 1 18334018289218455872
57812782 119 17894911845176785574

> <PUBCHEM_SHAPE_MULTIPOLES>
211.74
5.36
1.4
0.98
2.85
0.12
-0.03
1.61
0.54
-0.27
-0.07
-0.45
-0.31
0.03

> <PUBCHEM_SHAPE_SELFOVERLAP>
403.354

> <PUBCHEM_SHAPE_VOLUME>
128.9

> <PUBCHEM_COORDINATE_TYPE>
2
5
10

$$$$
24749
  -OEChem-07262316173D

 24 23  0     1  0  0  0  0  0999 V2000
   -0.6578   -0.9686   -1.4168 O   0  0  0  0  0  0  0  0  0  0  0  0
    0.7767    1.1642    1.1948 O   0  0  0  0  0  0  0  0  0  0  0  0
   -2.2091    1.2379   -0.6049 O   0  0  0  0  0  0  0  0  0  0  0  0
    2.9464    1.1904   -0.4795 O   0  0  0  0  0  0  0  0  0  0  0  0
   -4.2172   -0.2276    0.6508 O   0  0  0  0  0  0  0  0  0  0  0  0
    3.5594   -1.0340    0.8468 O   0  0  0  0  0  0  0  0  0  0  0  0
   -0.5067   -0.3870   -0.1174 C   0  0  1  0  0  0  0  0  0  0  0  0
    0.6457    0.6325   -0.1292 C   0  0  2  0  0  0  0  0  0  0  0  0
   -1.8774    0.1700    0.2946 C   0  0  2  0  0  0  0  0  0  0  0  0
    2.0098    0.1273   -0.6177 C   0  0  2  0  0  0  0  0  0  0  0  0
   -3.0103   -0.8476    0.2154 C   0  0  0  0  0  0  0  0  0  0  0  0
    2.5405   -1.0573    0.1631 C   0  0  0  0  0  0  0  0  0  0  0  0
   -0.2628   -1.2006    0.5755 H   0  0  0  0  0  0  0  0  0  0  0  0
    0.3692    1.4790   -0.7708 H   0  0  0  0  0  0  0  0  0  0  0  0
   -1.8260    0.6036    1.2997 H   0  0  0  0  0  0  0  0  0  0  0  0
    1.9589   -0.1571   -1.6739 H   0  0  0  0  0  0  0  0  0  0  0  0
   -2.8158   -1.7189    0.8482 H   0  0  0  0  0  0  0  0  0  0  0  0
   -3.1812   -1.1845   -0.8116 H   0  0  0  0  0  0  0  0  0  0  0  0
   -0.8740   -0.2503   -2.0359 H   0  0  0  0  0  0  0  0  0  0  0  0
    1.4908    1.8239    1.1739 H   0  0  0  0  0  0  0  0  0  0  0  0
    1.9548   -1.9876    0.0691 H   0  0  0  0  0  0  0  0  0  0  0  0
   -3.0677    1.5982   -0.3236 H   0  0  0  0  0  0  0  0  0  0  0  0
    3.7714    0.9111   -0.9124 H   0  0  0  0  0  0  0  0  0  0  0  0
   -4.0887    0.0454    1.5752 H   0  0  0  0  0  0  0  0  0  0  0  0
  1  7  1  0  0  0  0
  1 19  1  0  0  0  0
  2  8  1  0  0  0  0
  2 20  1  0  0  0  0
  3  9  1  0  0  0  0
  3 22  1  0  0  0  0
  4 10  1  0  0  0  0
  4 23  1  0  0  0  0
  5 11  1  0  0  0  0
  5 24  1  0  0  0  0
  6 12  2  0  0  0  0
  7  8  1  0  0  0  0
  7  9  1  0  0  0  0
  7 13  1  0  0  0  0
  8 10  1  0  0  0  0
  8 14  1  0  0  0  0
  9 11  1  0  0  0  0
  9 15  1  0  0  0  0
 10 12  1  0  0  0  0
 10 16  1  0  0  0  0
 11 17  1  0  0  0  0
 11 18  1  0  0  0  0
 12 21  1  0  0  0  0
M  END
> <PUBCHEM_COMPOUND_CID>
24749

> <PUBCHEM_CONFORMER_RMSD>
0.6

> <PUBCHEM_CONFORMER_DIVERSEORDER>
1
78
316
213
133
26
244
257
122
353
49
304
325
9
158
300
245
27
197
306
172
77
248
99
312
134
349
102
177
342
28
290
88
289
132
214
242
249
190
94
163
32
148
270
149
183
66
337
36
253
21
346
23
230
127
323
324
65
345
93
25
355
179
357
74
301
101
60
103
185
348
296
279
10
299
281
144
7
347
153
284
63
330
3
231
184
327
55
329
194
263
318
320
112
291
247
167
276
44
139
334
233
12
277
71
174
37
339
308
114
113
343
220
288
38
226
123
202
110
54
13
268
239
84
258
211
287
168
72
131
295
100
261
335
19
106
203
162
283
286
269
333
228
319
80
219
189
57
321
252
47
33
285
196
14
238
338
266
204
260
64
124
137
70
18
210
166
126
326
46
234
344
108
267
274
222
22
188
328
217
331
176
207
354
67
56
136
317
83
181
140
191
275
280
117
39
42
224
229
255
51
332
200
273
161
75
15
282
95
305
143
160
227
322
82
2
246
120
138
205
109
359
85
223
218
104
201
29
193
237
17
105
62
59
45
309
142
256
178
121
151
58
154
145
278
87
86
170
61
175
311
150
141
24
130
164
79
11
8
272
293
135
358
209
128
292
315
43
30
90
89
232
216
92
182
350
159
336
221
186
173
351
125
236
97
91
225
31
307
81
356
314
212
34
302
76
146
69
262
35
208
16
155
48
251
241
298
68
53
41
147
259
116
235
52
4
50
271
115
6
198
243
192
215
98
40
206
250
129
180
313
264
169
352
297
303
119
111
341
240
157
20
340
254
118
310
187
165
171
195
152
265
294
156
107
73
5
199
96

> <PUBCHEM_MMFF94_PARTIAL_CHARGES>
18
1 -0.68
10 0.34
11 0.28
12 0.45
19 0.4
2 -0.68
20 0.4
21 0.06
22 0.4
23 0.4
24 0.4
3 -0.68
4 -0.68
5 -0.68
6 -0.57
7 0.28
8 0.28
9 0.28

> <PUBCHEM_EFFECTIVE_ROTOR_COUNT>
5

> <PUBCHEM_PHARMACOPHORE_FEATURES>
11
1 1 acceptor
1 1 donor
1 2 acceptor
1 2 donor
1 3 acceptor
1 3 donor
1 4 acceptor
1 4 donor
1 5 acceptor
1 5 donor
1 6 acceptor

> <PUBCHEM_HEAVY_ATOM_COUNT>
12

> <PUBCHEM_ATOM_DEF_STEREO_COUNT>
0

> <PUBCHEM_ATOM_UDEF_STEREO_COUNT>
4

> <PUBCHEM_BOND_DEF_STEREO_COUNT>
0

> <PUBCHEM_BOND_UDEF_STEREO_COUNT>
0

> <PUBCHEM_ISOTOPIC_ATOM_COUNT>
0

> <PUBCHEM_COMPONENT_COUNT>
1

> <PUBCHEM_CACTVS_TAUTO_COUNT>
6

> <PUBCHEM_CONFORMER_ID>
000060AD00000001

> <PUBCHEM_MMFF94_ENERGY>
20.4871

> <PUBCHEM_FEATURE_SELFOVERLAP>
55.861

> <PUBCHEM_SHAPE_FINGERPRINT>
10130415 120 18343022176921445696
11062470 55 11527948945823836691
11769659 78 18113334215117235907
12897270 3 12107788492901009158
12932764 1 18272928370785724316
14325111 11 18260832596229343813
15310529 11 18334858341787530092
15775835 57 18272376424596420695
16945 1 17346596369872333956
18342897 14 17917715694846296873
20645477 70 18260264140223275183
20871998 22 18265899051801260342
22485316 2 18260548965448140883
23402539 116 13262684768248093754
23552333 60 18411425012089960384
3248919 1 18060423482163203005
5084963 1 18409450293190257489

> <PUBCHEM_SHAPE_MULTIPOLES>
211.74
6
1.24
0.98
1.9
0.09
0.06
-1.17
-1.16
-0.44
-0.01
-0.09
-0.03
-0.19

> <PUBCHEM_SHAPE_SELFOVERLAP>
402.216

> <PUBCHEM_SHAPE_VOLUME>
129.5

> <PUBCHEM_COORDINATE_TYPE>
2
5
10

$$$$
