991
  -OEChem-07262316173D

 32 32  0     0  0  0  0  0  0999 V2000
    1.9557    0.1399   -2.3937 S   0  0  0  0  0  0  0  0  0  0  0  0
    2.1225    0.0334   -0.4535 P   0  0  0  0  0  0  0  0  0  0  0  0
    0.9620   -0.7736    0.3407 O   0  0  0  0  0  0  0  0  0  0  0  0
    3.4586   -0.7111    0.1056 O   0  0  0  0  0  0  0  0  0  0  0  0
    2.1838    1.4362    0.3685 O   0  0  0  0  0  0  0  0  0  0  0  0
   -4.9431    1.2555   -0.2871 O   0  5  0  0  0  0  0  0  0  0  0  0
   -5.3098   -0.8666    0.1387 O   0  0  0  0  0  0  0  0  0  0  0  0
   -4.5273    0.0991   -0.0337 N   0  3  0  0  0  0  0  0  0  0  0  0
   -0.3868   -0.5591    0.2491 C   0  0  0  0  0  0  0  0  0  0  0  0
    3.6301   -2.1030   -0.1022 C   0  0  0  0  0  0  0  0  0  0  0  0
    3.1008    2.4431   -0.0243 C   0  0  0  0  0  0  0  0  0  0  0  0
   -0.8648    0.7162   -0.0335 C   0  0  0  0  0  0  0  0  0  0  0  0
   -1.2681   -1.6186    0.4380 C   0  0  0  0  0  0  0  0  0  0  0  0
   -3.1280   -0.1238    0.0603 C   0  0  0  0  0  0  0  0  0  0  0  0
   -2.2393    0.9346   -0.1281 C   0  0  0  0  0  0  0  0  0  0  0  0
   -2.6425   -1.4004    0.3433 C   0  0  0  0  0  0  0  0  0  0  0  0
    4.9444   -2.5351    0.5125 C   0  0  0  0  0  0  0  0  0  0  0  0
    2.9519    3.6332    0.8993 C   0  0  0  0  0  0  0  0  0  0  0  0
    2.8029   -2.6467    0.3641 H   0  0  0  0  0  0  0  0  0  0  0  0
    3.6323   -2.3165   -1.1750 H   0  0  0  0  0  0  0  0  0  0  0  0
    4.1190    2.0454    0.0287 H   0  0  0  0  0  0  0  0  0  0  0  0
    2.8932    2.7528   -1.0523 H   0  0  0  0  0  0  0  0  0  0  0  0
   -0.2055    1.5640   -0.1781 H   0  0  0  0  0  0  0  0  0  0  0  0
   -0.8934   -2.6143    0.6582 H   0  0  0  0  0  0  0  0  0  0  0  0
   -2.5818    1.9426   -0.3480 H   0  0  0  0  0  0  0  0  0  0  0  0
   -3.3051   -2.2484    0.4963 H   0  0  0  0  0  0  0  0  0  0  0  0
    5.1087   -3.6068    0.3704 H   0  0  0  0  0  0  0  0  0  0  0  0
    5.7788   -1.9867    0.0631 H   0  0  0  0  0  0  0  0  0  0  0  0
    4.9593   -2.3142    1.5850 H   0  0  0  0  0  0  0  0  0  0  0  0
    3.6467    4.4314    0.6238 H   0  0  0  0  0  0  0  0  0  0  0  0
    1.9300    4.0248    0.8615 H   0  0  0  0  0  0  0  0  0  0  0  0
    3.1424    3.3414    1.9374 H   0  0  0  0  0  0  0  0  0  0  0  0
  1  2  2  0  0  0  0
  2  3  1  0  0  0  0
  2  4  1  0  0  0  0
  2  5  1  0  0  0  0
  3  9  1  0  0  0  0
  4 10  1  0  0  0  0
  5 11  1  0  0  0  0
  6  8  1  0  0  0  0
  7  8  2  0  0  0  0
  8 14  1  0  0  0  0
  9 12  2  0  0  0  0
  9 13  1  0  0  0  0
 10 17  1  0  0  0  0
 10 19  1  0  0  0  0
 10 20  1  0  0  0  0
 11 18  1  0  0  0  0
 11 21  1  0  0  0  0
 11 22  1  0  0  0  0
 12 15  1  0  0  0  0
 12 23  1  0  0  0  0
 13 16  2  0  0  0  0
 13 24  1  0  0  0  0
 14 15  2  0  0  0  0
 14 16  1  0  0  0  0
 15 25  1  0  0  0  0
 16 26  1  0  0  0  0
 17 27  1  0  0  0  0
 17 28  1  0  0  0  0
 17 29  1  0  0  0  0
 18 30  1  0  0  0  0
 18 31  1  0  0  0  0
 18 32  1  0  0  0  0
M  CHG  2   6  -1   8   1
M  END
> <PUBCHEM_COMPOUND_CID>
991

> <PUBCHEM_CONFORMER_RMSD>
0.8

> <PUBCHEM_CONFORMER_DIVERSEORDER>
1
11
4
16
5
14
10
18
13
3
2
17
6
12
21
8
15
9
7
20
19

> <PUBCHEM_MMFF94_PARTIAL_CHARGES>
20
1 -0.68
10 0.28
11 0.28
12 -0.15
13 -0.15
14 0.13
15 -0.15
16 -0.15
2 1.49
23 0.15
24 0.15
25 0.15
26 0.15
3 -0.35
4 -0.55
5 -0.55
6 -0.52
7 -0.52
8 0.91
9 0.08

> <PUBCHEM_EFFECTIVE_ROTOR_COUNT>
7

> <PUBCHEM_PHARMACOPHORE_FEATURES>
4
1 6 acceptor
1 6 anion
1 7 acceptor
6 9 12 13 14 15 16 rings

> <PUBCHEM_HEAVY_ATOM_COUNT>
18

> <PUBCHEM_ATOM_DEF_STEREO_COUNT>
0

> <PUBCHEM_ATOM_UDEF_STEREO_COUNT>
0

> <PUBCHEM_BOND_DEF_STEREO_COUNT>
0

> <PUBCHEM_BOND_UDEF_STEREO_COUNT>
0

> <PUBCHEM_ISOTOPIC_ATOM_COUNT>
0

> <PUBCHEM_COMPONENT_COUNT>
1

> <PUBCHEM_CACTVS_TAUTO_COUNT>
1

> <PUBCHEM_CONFORMER_ID>
000003DF00000001

> <PUBCHEM_MMFF94_ENERGY>
34.0636

> <PUBCHEM_FEATURE_SELFOVERLAP>
20.379

> <PUBCHEM_SHAPE_FINGERPRINT>
11405975 8 18411704292027263651
12403259 226 18335134237575589916
12403259 415 18040992926116221493
12403260 363 18343299237009444393
12507560 14 18271804575834849886
12516196 113 18340767036499416882
12549972 3 17968672608559227450
12616971 3 18060419119156931911
13134695 92 18411976928309321788
13533116 47 18408605881102985323
13675066 3 18040437724125325427
13955234 65 18340768251510529392
14115302 16 18114192912234345998
14178342 30 17826796146485535906
14866123 147 16899054159580968322
15196674 1 18408885153119961361
15295992 7 18262249858269972907
15536298 74 18409167744308173017
17804303 29 18261676969725564662
18186145 218 18342753918018261293
20369508 70 18411984646186327846
20645477 56 18261110837380504169
20645477 70 18059866094250459068
20832881 197 18189335676023414170
21452121 103 18338508733461505208
23402539 116 18270673169790541943
23557571 272 18051147078684990599
23559900 14 18412539912306132666
3004659 81 17896608285089170282
3286 77 18336548231119589644
5104073 3 18410299129384034755
633830 44 18059584568430622309
6443956 14 18265055730582966302
67856867 119 18271517706220836560
7364860 26 18411138065366995682
77188 2 18267866091378331744
9709674 26 18335140954952069587
9981440 41 17905321085372199296

> <PUBCHEM_SHAPE_MULTIPOLES>
343.8
9.9
3.01
1.12
7.38
1.95
0.88
-2.14
-0.81
-5.1
-1.14
-1
0.17
0.44

> <PUBCHEM_SHAPE_SELFOVERLAP>
666.224

> <PUBCHEM_SHAPE_VOLUME>
210.8

> <PUBCHEM_COORDINATE_TYPE>
2
5
10

$$$$
