2720
  -OEChem-07262316183D

 23 24  0     0  0  0  0  0  0999 V2000
   -2.7253    2.3981    0.0362 Cl  0  0  0  0  0  0  0  0  0  0  0  0
    2.4192   -1.1742    0.0118 S   0  0  0  0  0  0  0  0  0  0  0  0
   -2.9783   -0.8233    0.0959 S   0  0  0  0  0  0  0  0  0  0  0  0
    2.3684   -1.9171   -1.2345 O   0  0  0  0  0  0  0  0  0  0  0  0
    2.4092   -1.8751    1.2831 O   0  0  0  0  0  0  0  0  0  0  0  0
   -2.7811   -2.1384    0.6844 O   0  0  0  0  0  0  0  0  0  0  0  0
   -3.9596    0.0883    0.6621 O   0  0  0  0  0  0  0  0  0  0  0  0
    2.3558    1.8403   -0.0376 N   0  0  0  0  0  0  0  0  0  0  0  0
    3.7005   -0.1643   -0.0261 N   0  0  0  0  0  0  0  0  0  0  0  0
   -3.2891   -1.0027   -1.5733 N   0  0  0  0  0  0  0  0  0  0  0  0
    0.9686   -0.1616    0.0183 C   0  0  0  0  0  0  0  0  0  0  0  0
    1.0993    1.2288   -0.0073 C   0  0  0  0  0  0  0  0  0  0  0  0
   -1.4286   -0.0061    0.0545 C   0  0  0  0  0  0  0  0  0  0  0  0
   -0.2772   -0.7889    0.0489 C   0  0  0  0  0  0  0  0  0  0  0  0
   -0.0699    1.9979   -0.0011 C   0  0  0  0  0  0  0  0  0  0  0  0
   -1.3259    1.3848    0.0292 C   0  0  0  0  0  0  0  0  0  0  0  0
    3.5141    1.1136   -0.0444 C   0  0  0  0  0  0  0  0  0  0  0  0
   -0.3332   -1.8734    0.0596 H   0  0  0  0  0  0  0  0  0  0  0  0
    0.0048    3.0838   -0.0203 H   0  0  0  0  0  0  0  0  0  0  0  0
    2.3834    2.8537   -0.0552 H   0  0  0  0  0  0  0  0  0  0  0  0
    4.3992    1.7694   -0.0697 H   0  0  0  0  0  0  0  0  0  0  0  0
   -3.2286   -1.9478   -1.9713 H   0  0  0  0  0  0  0  0  0  0  0  0
   -4.0322   -0.4252   -1.9852 H   0  0  0  0  0  0  0  0  0  0  0  0
  1 16  1  0  0  0  0
  2  4  2  0  0  0  0
  2  5  2  0  0  0  0
  2  9  1  0  0  0  0
  2 11  1  0  0  0  0
  3  6  2  0  0  0  0
  3  7  2  0  0  0  0
  3 10  1  0  0  0  0
  3 13  1  0  0  0  0
  8 12  1  0  0  0  0
  8 17  1  0  0  0  0
  8 20  1  0  0  0  0
  9 17  2  0  0  0  0
 10 22  1  0  0  0  0
 10 23  1  0  0  0  0
 11 12  1  0  0  0  0
 11 14  2  0  0  0  0
 12 15  2  0  0  0  0
 13 14  1  0  0  0  0
 13 16  2  0  0  0  0
 14 18  1  0  0  0  0
 15 16  1  0  0  0  0
 15 19  1  0  0  0  0
 17 21  1  0  0  0  0
M  END
> <PUBCHEM_COMPOUND_CID>
2720

> <PUBCHEM_CONFORMER_RMSD>
0.6

> <PUBCHEM_CONFORMER_DIVERSEORDER>
1
2

> <PUBCHEM_MMFF94_PARTIAL_CHARGES>
23
1 -0.18
10 -0.98
11 -0.01
12 0.1
13 -0.01
14 -0.15
15 -0.15
16 0.18
17 0.44
18 0.15
19 0.15
2 1.5
20 0.4
21 0.06
22 0.42
23 0.42
3 1.45
4 -0.65
5 -0.65
6 -0.65
7 -0.65
8 -0.55
9 -0.64

> <PUBCHEM_EFFECTIVE_ROTOR_COUNT>
1.2

> <PUBCHEM_PHARMACOPHORE_FEATURES>
9
1 10 donor
1 4 acceptor
1 5 acceptor
1 6 acceptor
1 7 acceptor
1 8 donor
1 9 donor
6 11 12 13 14 15 16 rings
6 2 8 9 11 12 17 rings

> <PUBCHEM_HEAVY_ATOM_COUNT>
17

> <PUBCHEM_ATOM_DEF_STEREO_COUNT>
0

> <PUBCHEM_ATOM_UDEF_STEREO_COUNT>
0

> <PUBCHEM_BOND_DEF_STEREO_COUNT>
0

> <PUBCHEM_BOND_UDEF_STEREO_COUNT>
0

> <PUBCHEM_ISOTOPIC_ATOM_COUNT>
0

> <PUBCHEM_COMPONENT_COUNT>
1

> <PUBCHEM_CACTVS_TAUTO_COUNT>
2

> <PUBCHEM_CONFORMER_ID>
00000AA000000001

> <PUBCHEM_MMFF94_ENERGY>
21.4336

> <PUBCHEM_FEATURE_SELFOVERLAP>
45.754

> <PUBCHEM_SHAPE_FINGERPRINT>
10608611 8 18411136917994101256
10616163 171 18412267267486737831
10967382 1 18410014333764613729
11132069 177 18341045306623059112
11471102 20 18337668719230489004
11578080 2 17096913686649323796
12553582 1 18340485668231685155
12932764 1 17750803138164498340
13140716 1 18266457603080293456
13221675 6 18341333383001303414
13296908 3 18340208479511068678
14144814 61 18411420613463122643
14223421 5 18411983580607124936
15219456 202 18342461387331546204
15442244 35 18265331703347264096
15536298 74 18342741801852176808
16945 1 18266174109479489784
17990270 104 18341615859032506654
18186145 218 17967533462762493215
19107657 46 18338238283396759207
19591789 44 15740523620752961785
200 152 18201711894800952445
20442098 301 18273213079830480918
20510252 161 18271248205703014481
20645477 70 18412259571142850423
21267235 1 18410023125562824554
21501502 16 18410290272581480632
221490 88 18409740568718533426
23184049 29 18264486179137606288
2334 1 18410292497305961689
23388829 49 18341046427525224733
23402539 116 18409441518556130660
23463225 33 18409450280062866384
23557571 272 18271816670425806260
23558518 356 18260555566401963976
23559900 14 18125440809445360254
2748010 2 18410854321993808332
2871803 45 18335980951860076798
3312278 4 18334859475843389163
335352 9 17977667511085423813
34934 24 18411415141870018169
5104073 3 18411417281127885312
58051976 378 18336826493597971196
69090 78 18267583512194443617
7364860 26 18343586261189669352
74978 22 18265052427314791480
7832392 63 18266180530629813568
8809292 202 18187651361421735379
9709674 26 18412267220236874822

> <PUBCHEM_SHAPE_MULTIPOLES>
321
6.47
2.49
0.9
0.43
0.4
0.15
-1.02
0.05
0.36
-0.07
0.18
-0.44
-0.11

> <PUBCHEM_SHAPE_SELFOVERLAP>
659.415

> <PUBCHEM_SHAPE_VOLUME>
184.7

> <PUBCHEM_COORDINATE_TYPE>
2
5
10

$$$$
