6108
  -OEChem-07262316183D

 17 17  0     0  0  0  0  0  0999 V2000
   -3.3729   -1.1997   -0.0008 O   0  0  0  0  0  0  0  0  0  0  0  0
   -3.5433    1.0670    0.0008 O   0  0  0  0  0  0  0  0  0  0  0  0
    3.4453    1.0807   -0.0002 O   0  5  0  0  0  0  0  0  0  0  0  0
    3.4213   -1.1143    0.0007 O   0  0  0  0  0  0  0  0  0  0  0  0
    2.8251   -0.0102    0.0000 N   0  3  0  0  0  0  0  0  0  0  0  0
   -1.3843    0.0362   -0.0001 C   0  0  0  0  0  0  0  0  0  0  0  0
    1.4053    0.0053   -0.0001 C   0  0  0  0  0  0  0  0  0  0  0  0
   -0.6736    1.2364   -0.0003 C   0  0  0  0  0  0  0  0  0  0  0  0
   -0.7002   -1.1795    0.0000 C   0  0  0  0  0  0  0  0  0  0  0  0
    0.7211    1.2209   -0.0004 C   0  0  0  0  0  0  0  0  0  0  0  0
    0.6946   -1.1950    0.0001 C   0  0  0  0  0  0  0  0  0  0  0  0
   -2.8384    0.0524    0.0004 C   0  0  0  0  0  0  0  0  0  0  0  0
   -1.1881    2.1938   -0.0004 H   0  0  0  0  0  0  0  0  0  0  0  0
   -1.2142   -2.1367    0.0003 H   0  0  0  0  0  0  0  0  0  0  0  0
    1.2417    2.1752   -0.0005 H   0  0  0  0  0  0  0  0  0  0  0  0
    1.1945   -2.1604    0.0002 H   0  0  0  0  0  0  0  0  0  0  0  0
   -4.3537   -1.1778   -0.0009 H   0  0  0  0  0  0  0  0  0  0  0  0
  1 12  1  0  0  0  0
  1 17  1  0  0  0  0
  2 12  2  0  0  0  0
  3  5  1  0  0  0  0
  4  5  2  0  0  0  0
  5  7  1  0  0  0  0
  6  8  2  0  0  0  0
  6  9  1  0  0  0  0
  6 12  1  0  0  0  0
  7 10  2  0  0  0  0
  7 11  1  0  0  0  0
  8 10  1  0  0  0  0
  8 13  1  0  0  0  0
  9 11  2  0  0  0  0
  9 14  1  0  0  0  0
 10 15  1  0  0  0  0
 11 16  1  0  0  0  0
M  CHG  2   3  -1   5   1
M  END
> <PUBCHEM_COMPOUND_CID>
6108

> <PUBCHEM_CONFORMER_RMSD>
0.6

> <PUBCHEM_CONFORMER_DIVERSEORDER>
1
2

> <PUBCHEM_MMFF94_PARTIAL_CHARGES>
17
1 -0.65
10 -0.15
11 -0.15
12 0.63
13 0.15
14 0.15
15 0.15
16 0.15
17 0.5
2 -0.57
3 -0.52
4 -0.52
5 0.91
6 0.09
7 0.13
8 -0.15
9 -0.15

> <PUBCHEM_EFFECTIVE_ROTOR_COUNT>
2

> <PUBCHEM_PHARMACOPHORE_FEATURES>
7
1 1 acceptor
1 2 acceptor
1 3 acceptor
1 3 anion
1 4 acceptor
3 1 2 12 anion
6 6 7 8 9 10 11 rings

> <PUBCHEM_HEAVY_ATOM_COUNT>
12

> <PUBCHEM_ATOM_DEF_STEREO_COUNT>
0

> <PUBCHEM_ATOM_UDEF_STEREO_COUNT>
0

> <PUBCHEM_BOND_DEF_STEREO_COUNT>
0

> <PUBCHEM_BOND_UDEF_STEREO_COUNT>
0

> <PUBCHEM_ISOTOPIC_ATOM_COUNT>
0

> <PUBCHEM_COMPONENT_COUNT>
1

> <PUBCHEM_CACTVS_TAUTO_COUNT>
1

> <PUBCHEM_CONFORMER_ID>
000017DC00000001

> <PUBCHEM_MMFF94_ENERGY>
36.5775

> <PUBCHEM_FEATURE_SELFOVERLAP>
35.662

> <PUBCHEM_SHAPE_FINGERPRINT>
10219947 1 18411140229350069757
11062470 55 18411138030385024833
11132069 177 18411975845355077280
12032990 46 18410862061503757063
12932764 1 17167853149774866539
14325111 11 18410856568235031393
14993402 34 18411699915149438861
16945 1 18410575063256853189
18186145 218 18040713649693033854
193761 8 17546165203593592167
20201158 50 18411138000383596303
20645476 183 17896339054478216870
23235685 24 18410568487625058209
23402539 116 18272078388463128702
23402655 69 18268976602444045421
23463225 33 18336544928395253162
23559900 14 18342457033178693654
2748010 2 18194682806895064909
528886 8 18411412895654798571

> <PUBCHEM_SHAPE_MULTIPOLES>
218.5
5.65
1.46
0.58
0.24
0.02
0
0.01
0
0
0
-0.02
0
0

> <PUBCHEM_SHAPE_SELFOVERLAP>
463.035

> <PUBCHEM_SHAPE_VOLUME>
122.3

> <PUBCHEM_COORDINATE_TYPE>
2
5
10

$$$$
