6319
  -OEChem-07262316183D

 36 38  0     0  0  0  0  0  0999 V2000
    2.8054   -1.2379   -0.0370 N   0  0  0  0  0  0  0  0  0  0  0  0
   -2.8051   -1.2379   -0.0348 N   0  0  0  0  0  0  0  0  0  0  0  0
    1.3951   -1.2380   -0.0367 C   0  0  0  0  0  0  0  0  0  0  0  0
   -1.3968   -1.2379   -0.0354 C   0  0  0  0  0  0  0  0  0  0  0  0
    0.6974   -2.2661   -0.6704 C   0  0  0  0  0  0  0  0  0  0  0  0
   -0.6975   -2.2660   -0.6699 C   0  0  0  0  0  0  0  0  0  0  0  0
    0.6979   -0.2096    0.5975 C   0  0  0  0  0  0  0  0  0  0  0  0
   -0.6970   -0.2096    0.5983 C   0  0  0  0  0  0  0  0  0  0  0  0
    3.7593   -0.2020   -0.0065 C   0  0  0  0  0  0  0  0  0  0  0  0
   -3.7604   -0.2005   -0.0052 C   0  0  0  0  0  0  0  0  0  0  0  0
    5.0026   -0.4135    0.5921 C   0  0  0  0  0  0  0  0  0  0  0  0
   -5.0025   -0.4132    0.5927 C   0  0  0  0  0  0  0  0  0  0  0  0
    3.4637    1.0385   -0.5742 C   0  0  0  0  0  0  0  0  0  0  0  0
   -3.4631    1.0380   -0.5741 C   0  0  0  0  0  0  0  0  0  0  0  0
    5.9472    0.6124    0.6227 C   0  0  0  0  0  0  0  0  0  0  0  0
   -5.9473    0.6126    0.6218 C   0  0  0  0  0  0  0  0  0  0  0  0
    4.4084    2.0643   -0.5439 C   0  0  0  0  0  0  0  0  0  0  0  0
   -4.4077    2.0639   -0.5447 C   0  0  0  0  0  0  0  0  0  0  0  0
    5.6501    1.8513    0.0546 C   0  0  0  0  0  0  0  0  0  0  0  0
   -5.6499    1.8512    0.0532 C   0  0  0  0  0  0  0  0  0  0  0  0
    1.2294   -3.0723   -1.1691 H   0  0  0  0  0  0  0  0  0  0  0  0
   -1.2297   -3.0723   -1.1683 H   0  0  0  0  0  0  0  0  0  0  0  0
    1.2151    0.5893    1.1217 H   0  0  0  0  0  0  0  0  0  0  0  0
   -1.2134    0.5896    1.1230 H   0  0  0  0  0  0  0  0  0  0  0  0
    3.2131   -2.1684   -0.0635 H   0  0  0  0  0  0  0  0  0  0  0  0
   -3.2139   -2.1678   -0.0619 H   0  0  0  0  0  0  0  0  0  0  0  0
    5.2460   -1.3741    1.0391 H   0  0  0  0  0  0  0  0  0  0  0  0
   -5.2458   -1.3736    1.0400 H   0  0  0  0  0  0  0  0  0  0  0  0
    2.5134    1.2262   -1.0666 H   0  0  0  0  0  0  0  0  0  0  0  0
   -2.5126    1.2251   -1.0661 H   0  0  0  0  0  0  0  0  0  0  0  0
    6.9141    0.4467    1.0887 H   0  0  0  0  0  0  0  0  0  0  0  0
   -6.9145    0.4471    1.0872 H   0  0  0  0  0  0  0  0  0  0  0  0
    4.1791    3.0274   -0.9906 H   0  0  0  0  0  0  0  0  0  0  0  0
   -4.1784    3.0266   -0.9919 H   0  0  0  0  0  0  0  0  0  0  0  0
    6.3861    2.6496    0.0773 H   0  0  0  0  0  0  0  0  0  0  0  0
   -6.3859    2.6495    0.0749 H   0  0  0  0  0  0  0  0  0  0  0  0
  1  3  1  0  0  0  0
  1  9  1  0  0  0  0
  1 25  1  0  0  0  0
  2  4  1  0  0  0  0
  2 10  1  0  0  0  0
  2 26  1  0  0  0  0
  3  5  2  0  0  0  0
  3  7  1  0  0  0  0
  4  6  2  0  0  0  0
  4  8  1  0  0  0  0
  5  6  1  0  0  0  0
  5 21  1  0  0  0  0
  6 22  1  0  0  0  0
  7  8  2  0  0  0  0
  7 23  1  0  0  0  0
  8 24  1  0  0  0  0
  9 11  2  0  0  0  0
  9 13  1  0  0  0  0
 10 12  2  0  0  0  0
 10 14  1  0  0  0  0
 11 15  1  0  0  0  0
 11 27  1  0  0  0  0
 12 16  1  0  0  0  0
 12 28  1  0  0  0  0
 13 17  2  0  0  0  0
 13 29  1  0  0  0  0
 14 18  2  0  0  0  0
 14 30  1  0  0  0  0
 15 19  2  0  0  0  0
 15 31  1  0  0  0  0
 16 20  2  0  0  0  0
 16 32  1  0  0  0  0
 17 19  1  0  0  0  0
 17 33  1  0  0  0  0
 18 20  1  0  0  0  0
 18 34  1  0  0  0  0
 19 35  1  0  0  0  0
 20 36  1  0  0  0  0
M  END
> <PUBCHEM_COMPOUND_CID>
6319

> <PUBCHEM_CONFORMER_RMSD>
0.6

> <PUBCHEM_CONFORMER_DIVERSEORDER>
1
18
3
2
12
4
6
14
8
7
16
11
13
5
15
10
9
19
17

> <PUBCHEM_MMFF94_PARTIAL_CHARGES>
36
1 -0.6
10 0.1
11 -0.15
12 -0.15
13 -0.15
14 -0.15
15 -0.15
16 -0.15
17 -0.15
18 -0.15
19 -0.15
2 -0.6
20 -0.15
21 0.15
22 0.15
23 0.15
24 0.15
25 0.4
26 0.4
27 0.15
28 0.15
29 0.15
3 0.1
30 0.15
31 0.15
32 0.15
33 0.15
34 0.15
35 0.15
36 0.15
4 0.1
5 -0.15
6 -0.15
7 -0.15
8 -0.15
9 0.1

> <PUBCHEM_EFFECTIVE_ROTOR_COUNT>
4

> <PUBCHEM_PHARMACOPHORE_FEATURES>
7
1 1 cation
1 1 donor
1 2 cation
1 2 donor
6 10 12 14 16 18 20 rings
6 3 4 5 6 7 8 rings
6 9 11 13 15 17 19 rings

> <PUBCHEM_HEAVY_ATOM_COUNT>
20

> <PUBCHEM_ATOM_DEF_STEREO_COUNT>
0

> <PUBCHEM_ATOM_UDEF_STEREO_COUNT>
0

> <PUBCHEM_BOND_DEF_STEREO_COUNT>
0

> <PUBCHEM_BOND_UDEF_STEREO_COUNT>
0

> <PUBCHEM_ISOTOPIC_ATOM_COUNT>
0

> <PUBCHEM_COMPONENT_COUNT>
1

> <PUBCHEM_CACTVS_TAUTO_COUNT>
1

> <PUBCHEM_CONFORMER_ID>
000018AF00000001

> <PUBCHEM_MMFF94_ENERGY>
87.3275

> <PUBCHEM_FEATURE_SELFOVERLAP>
35.522

> <PUBCHEM_SHAPE_FINGERPRINT>
10 15 18187089468362344401
105312 117 17203890785957969271
11595378 159 16733251370460325973
11796584 16 12103839030249620141
12107183 9 18263632997175976802
12293681 160 17632300077014924410
12403259 118 18263076772761038810
12422481 6 17749388139598295189
12516196 113 7997967968555396086
12555020 224 9727345798135418017
12596602 18 16443068334883059729
12633257 1 15864074316468371478
12760667 363 8286204946430453351
12969540 114 17060333041650550262
13103583 49 11891614564336744159
13167372 99 18409165489735367848
13288520 33 9079116665890115003
13402501 40 18409165502283075229
13685833 64 9799683814555794045
13740256 8 8862939485265628839
13785724 45 17905039249814232794
14123256 34 8070027800282120576
14790565 3 18342179951173396473
15188451 53 15358273692378535435
15419008 145 18042391453562746096
1601671 61 18412542111197564760
17134984 74 13326846729973082220
17870717 6 12751232598124201917
17959699 21 18410574015664777712
18222031 100 12251905905690946002
20281389 69 18335419062568574240
20715895 44 18411981325955230656
21033648 29 18270953656930101584
21150785 3 15626215840834722593
21304253 335 18334299785833741796
21315764 268 18186796967846434557
21452121 103 18336546023633246590
22079108 93 17385725824062580890
2215653 11 9943522977920880673
22950370 63 9079118868828562198
23227448 37 18340769346342152255
23272321 79 18409730677450938335
23559900 14 18196937673405999358
245318 6 17606138404681336404
25122255 55 8646491851073078121
2767999 5 18201998832780923784
2838139 119 18410847772258378852
2916195 48 18260829280862718497
293599 30 18344146998807567882
312425 54 16515402954337603313
314194 84 10665238059010875488
3472631 163 18271811289005987812
350125 39 18271526524316573051
351380 3 7997971267042865128
4325135 7 18413105083200679775
465052 167 11097856281137873280
5104073 3 18114751413218509419
54446538 1 18261108586485481085
5718773 13 8141499303864006593
59682541 35 18334306379589456889
59682541 52 16199881557202337660
5969126 39 18196931300497516927
7808743 9 18411415146191560683
7970288 3 9006792972827358116
8863177 126 9222642519939182301
960060 61 13254797953877032416

> <PUBCHEM_SHAPE_MULTIPOLES>
401.63
15.65
2.37
0.83
0
0.02
0
10.73
2.11
0
-0.61
0
0
0

> <PUBCHEM_SHAPE_SELFOVERLAP>
872.694

> <PUBCHEM_SHAPE_VOLUME>
216.8

> <PUBCHEM_COORDINATE_TYPE>
2
5
10

$$$$
