66203
  -OEChem-07262316193D

  4  3  0     0  0  0  0  0  0999 V2000
   -1.3034   -0.0004    0.0000 F   0  0  0  0  0  0  0  0  0  0  0  0
    0.6165   -1.1063    0.0000 O   0  5  0  0  0  0  0  0  0  0  0  0
    0.6158    1.1067    0.0000 O   0  0  0  0  0  0  0  0  0  0  0  0
    0.0710    0.0000   -0.0001 N   0  3  0  0  0  0  0  0  0  0  0  0
  1  4  1  0  0  0  0
  2  4  1  0  0  0  0
  3  4  2  0  0  0  0
M  CHG  2   2  -1   4   1
M  END
> <PUBCHEM_COMPOUND_CID>
66203

> <PUBCHEM_CONFORMER_RMSD>
0.4

> <PUBCHEM_CONFORMER_DIVERSEORDER>
1

> <PUBCHEM_MMFF94_PARTIAL_CHARGES>
4
1 -0.06
2 -0.52
3 -0.52
4 1.1

> <PUBCHEM_EFFECTIVE_ROTOR_COUNT>
0

> <PUBCHEM_PHARMACOPHORE_FEATURES>
2
1 2 acceptor
1 3 acceptor

> <PUBCHEM_HEAVY_ATOM_COUNT>
4

> <PUBCHEM_ATOM_DEF_STEREO_COUNT>
0

> <PUBCHEM_ATOM_UDEF_STEREO_COUNT>
0

> <PUBCHEM_BOND_DEF_STEREO_COUNT>
0

> <PUBCHEM_BOND_UDEF_STEREO_COUNT>
0

> <PUBCHEM_ISOTOPIC_ATOM_COUNT>
0

> <PUBCHEM_COMPONENT_COUNT>
1

> <PUBCHEM_CACTVS_TAUTO_COUNT>
1

> <PUBCHEM_CONFORMER_ID>
0001029B00000001

> <PUBCHEM_MMFF94_ENERGY>
0.0223

> <PUBCHEM_FEATURE_SELFOVERLAP>
10.224

> <PUBCHEM_SHAPE_FINGERPRINT>
139733 1 9293844680692000259
21015797 1 9365902244638575502

> <PUBCHEM_SHAPE_MULTIPOLES>
58.32
1.11
1.07
0.49
0
0.41
0
-0.37
0
0
0
0
-0.01
0

> <PUBCHEM_SHAPE_SELFOVERLAP>
99.643

> <PUBCHEM_SHAPE_VOLUME>
36.4

> <PUBCHEM_COORDINATE_TYPE>
2
5
10

$$$$
