139083
  -OEChem-07262316203D

  9  8  0     0  0  0  0  0  0999 V2000
    1.9763    1.4382    0.3910 F   0  0  0  0  0  0  0  0  0  0  0  0
    1.9543   -0.7964   -0.6529 F   0  0  0  0  0  0  0  0  0  0  0  0
   -2.0291   -0.8148    0.2961 F   0  0  0  0  0  0  0  0  0  0  0  0
    0.1251   -2.0271    0.2733 F   0  0  0  0  0  0  0  0  0  0  0  0
   -2.0196    1.2789   -0.3010 F   0  0  0  0  0  0  0  0  0  0  0  0
    1.3554    0.1625    0.2260 N   0  0  0  0  0  0  0  0  0  0  0  0
   -0.6786   -0.9264   -0.1651 N   0  0  0  0  0  0  0  0  0  0  0  0
   -0.6745    1.4069   -0.0647 N   0  0  0  0  0  0  0  0  0  0  0  0
   -0.0094    0.2782   -0.0025 C   0  0  0  0  0  0  0  0  0  0  0  0
  1  6  1  0  0  0  0
  2  6  1  0  0  0  0
  3  7  1  0  0  0  0
  4  7  1  0  0  0  0
  5  8  1  0  0  0  0
  6  9  1  0  0  0  0
  7  9  1  0  0  0  0
  8  9  2  0  0  0  0
M  END
> <PUBCHEM_COMPOUND_CID>
139083

> <PUBCHEM_CONFORMER_RMSD>
0.4

> <PUBCHEM_CONFORMER_DIVERSEORDER>
1
14
17
13
6
15
5
12
3
11
8
9
4
16
10
7
2

> <PUBCHEM_MMFF94_PARTIAL_CHARGES>
9
1 -0.05
2 -0.05
3 -0.05
4 -0.05
5 -0.01
6 0.06
7 0.06
8 -0.44
9 0.55

> <PUBCHEM_EFFECTIVE_ROTOR_COUNT>
2

> <PUBCHEM_PHARMACOPHORE_FEATURES>
1
4 6 7 8 9 cation

> <PUBCHEM_HEAVY_ATOM_COUNT>
9

> <PUBCHEM_ATOM_DEF_STEREO_COUNT>
0

> <PUBCHEM_ATOM_UDEF_STEREO_COUNT>
0

> <PUBCHEM_BOND_DEF_STEREO_COUNT>
0

> <PUBCHEM_BOND_UDEF_STEREO_COUNT>
0

> <PUBCHEM_ISOTOPIC_ATOM_COUNT>
0

> <PUBCHEM_COMPONENT_COUNT>
1

> <PUBCHEM_CACTVS_TAUTO_COUNT>
1

> <PUBCHEM_CONFORMER_ID>
00021F4B00000001

> <PUBCHEM_MMFF94_ENERGY>
29.0896

> <PUBCHEM_FEATURE_SELFOVERLAP>
5.074

> <PUBCHEM_SHAPE_FINGERPRINT>
16714656 1 18193560184048327568
18185500 45 16321182690634491721
20096714 4 18267299837592785396
21040471 1 18263924341290798117
23552423 10 18260834795305411854
29004967 10 18047477999740426531

> <PUBCHEM_SHAPE_MULTIPOLES>
133.9
2.41
1.75
0.6
0.08
0.26
0.02
-0.46
0.06
-0.1
-0.09
0.08
0.02
0.33

> <PUBCHEM_SHAPE_SELFOVERLAP>
249.642

> <PUBCHEM_SHAPE_VOLUME>
83.6

> <PUBCHEM_COORDINATE_TYPE>
2
5
10

$$$$
