145375
  -OEChem-07262316193D

  4  3  0     0  0  0  0  0  0999 V2000
    0.1026   -0.0001   -0.5897 S   0  0  0  0  0  0  0  0  0  0  0  0
   -1.5899   -0.0012    0.1620 S   0  0  0  0  0  0  0  0  0  0  0  0
    0.7425    1.2127    0.2138 F   0  0  0  0  0  0  0  0  0  0  0  0
    0.7449   -1.2114    0.2139 F   0  0  0  0  0  0  0  0  0  0  0  0
  1  2  2  0  0  0  0
  1  3  1  0  0  0  0
  1  4  1  0  0  0  0
M  END
> <PUBCHEM_COMPOUND_CID>
145375

> <PUBCHEM_CONFORMER_RMSD>
0.4

> <PUBCHEM_CONFORMER_DIVERSEORDER>
1

> <PUBCHEM_EFFECTIVE_ROTOR_COUNT>
0

> <PUBCHEM_PHARMACOPHORE_FEATURES>
0

> <PUBCHEM_HEAVY_ATOM_COUNT>
4

> <PUBCHEM_ATOM_DEF_STEREO_COUNT>
0

> <PUBCHEM_ATOM_UDEF_STEREO_COUNT>
0

> <PUBCHEM_BOND_DEF_STEREO_COUNT>
0

> <PUBCHEM_BOND_UDEF_STEREO_COUNT>
0

> <PUBCHEM_ISOTOPIC_ATOM_COUNT>
0

> <PUBCHEM_COMPONENT_COUNT>
1

> <PUBCHEM_CACTVS_TAUTO_COUNT>
1

> <PUBCHEM_CONFORMER_ID>
000237DF00000001

> <PUBCHEM_MMFF94_ENERGY>
0

> <PUBCHEM_FEATURE_SELFOVERLAP>
0

> <PUBCHEM_SHAPE_FINGERPRINT>
139733 1 10086764075310824495
20096714 4 18130233781987675505
21015797 1 8429780295355169863
5943 1 12491876581905786191

> <PUBCHEM_SHAPE_MULTIPOLES>
75.47
1.58
1.13
0.74
0.78
0
0.11
0
-0.14
-0.41
-0.15
0.01
0
0

> <PUBCHEM_SHAPE_SELFOVERLAP>
112.22

> <PUBCHEM_SHAPE_VOLUME>
57.3

> <PUBCHEM_COORDINATE_TYPE>
2
5
10

$$$$
