25242
  -OEChem-07262316193D

  4  3  0     0  0  0  0  0  0999 V2000
   -1.1280    0.2612    0.0000 F   0  0  0  0  0  0  0  0  0  0  0  0
    1.1280    0.2612    0.0000 F   0  0  0  0  0  0  0  0  0  0  0  0
    0.0000   -0.5225    0.0000 N   0  0  0  0  0  0  0  0  0  0  0  0
    0.0000   -1.1449    0.8068 H   0  0  0  0  0  0  0  0  0  0  0  0
  1  3  1  0  0  0  0
  2  3  1  0  0  0  0
  3  4  1  0  0  0  0
M  END
> <PUBCHEM_COMPOUND_CID>
25242

> <PUBCHEM_CONFORMER_RMSD>
0.4

> <PUBCHEM_CONFORMER_DIVERSEORDER>
1

> <PUBCHEM_MMFF94_PARTIAL_CHARGES>
4
1 -0.06
2 -0.06
3 -0.23
4 0.36

> <PUBCHEM_EFFECTIVE_ROTOR_COUNT>
0

> <PUBCHEM_PHARMACOPHORE_FEATURES>
0

> <PUBCHEM_HEAVY_ATOM_COUNT>
3

> <PUBCHEM_ATOM_DEF_STEREO_COUNT>
0

> <PUBCHEM_ATOM_UDEF_STEREO_COUNT>
0

> <PUBCHEM_BOND_DEF_STEREO_COUNT>
0

> <PUBCHEM_BOND_UDEF_STEREO_COUNT>
0

> <PUBCHEM_ISOTOPIC_ATOM_COUNT>
0

> <PUBCHEM_COMPONENT_COUNT>
1

> <PUBCHEM_CACTVS_TAUTO_COUNT>
1

> <PUBCHEM_CONFORMER_ID>
0000629A00000001

> <PUBCHEM_MMFF94_ENERGY>
0

> <PUBCHEM_FEATURE_SELFOVERLAP>
0

> <PUBCHEM_SHAPE_FINGERPRINT>
139733 1 18410856559639906501
21015797 1 18047756189040736271

> <PUBCHEM_SHAPE_MULTIPOLES>
42.21
1.28
0.62
0.48
0
0.06
0
-0.22
0
0
0
0
0.01
0

> <PUBCHEM_SHAPE_SELFOVERLAP>
62.711

> <PUBCHEM_SHAPE_VOLUME>
31

> <PUBCHEM_COORDINATE_TYPE>
2
5
10

$$$$
