82672
  -OEChem-07262316203D

 13 12  0     0  0  0  0  0  0999 V2000
    0.8256    1.2183    1.0961 F   0  0  0  0  0  0  0  0  0  0  0  0
    0.8251    1.2175   -1.0982 F   0  0  0  0  0  0  0  0  0  0  0  0
    2.2114   -1.1707   -1.0907 F   0  0  0  0  0  0  0  0  0  0  0  0
    2.2037   -1.1688    1.0914 F   0  0  0  0  0  0  0  0  0  0  0  0
    3.2176    0.4280    0.0033 F   0  0  0  0  0  0  0  0  0  0  0  0
   -1.4983    1.5877   -0.0002 F   0  0  0  0  0  0  0  0  0  0  0  0
   -3.7938    0.2518    0.0000 F   0  0  0  0  0  0  0  0  0  0  0  0
   -2.6314   -1.7734    0.0002 F   0  0  0  0  0  0  0  0  0  0  0  0
   -0.2662   -0.4461   -0.0002 O   0  0  0  0  0  0  0  0  0  0  0  0
    0.8625    0.4227   -0.0008 C   0  0  0  0  0  0  0  0  0  0  0  0
    2.1347   -0.3781   -0.0007 C   0  0  0  0  0  0  0  0  0  0  0  0
   -1.4653    0.2353   -0.0003 C   0  0  0  0  0  0  0  0  0  0  0  0
   -2.6257   -0.4241    0.0002 C   0  0  0  0  0  0  0  0  0  0  0  0
  1 10  1  0  0  0  0
  2 10  1  0  0  0  0
  3 11  1  0  0  0  0
  4 11  1  0  0  0  0
  5 11  1  0  0  0  0
  6 12  1  0  0  0  0
  7 13  1  0  0  0  0
  8 13  1  0  0  0  0
  9 10  1  0  0  0  0
  9 12  1  0  0  0  0
 10 11  1  0  0  0  0
 12 13  2  0  0  0  0
M  END
> <PUBCHEM_COMPOUND_CID>
82672

> <PUBCHEM_CONFORMER_RMSD>
0.6

> <PUBCHEM_CONFORMER_DIVERSEORDER>
1
7
8
2
3
9
6
4
5

> <PUBCHEM_MMFF94_PARTIAL_CHARGES>
13
1 -0.34
10 0.96
11 1.02
12 0.23
13 0.3
2 -0.34
3 -0.34
4 -0.34
5 -0.34
6 -0.15
7 -0.15
8 -0.15
9 -0.36

> <PUBCHEM_EFFECTIVE_ROTOR_COUNT>
3

> <PUBCHEM_PHARMACOPHORE_FEATURES>
1
1 9 acceptor

> <PUBCHEM_HEAVY_ATOM_COUNT>
13

> <PUBCHEM_ATOM_DEF_STEREO_COUNT>
0

> <PUBCHEM_ATOM_UDEF_STEREO_COUNT>
0

> <PUBCHEM_BOND_DEF_STEREO_COUNT>
0

> <PUBCHEM_BOND_UDEF_STEREO_COUNT>
0

> <PUBCHEM_ISOTOPIC_ATOM_COUNT>
0

> <PUBCHEM_COMPONENT_COUNT>
1

> <PUBCHEM_CACTVS_TAUTO_COUNT>
1

> <PUBCHEM_CONFORMER_ID>
000142F000000001

> <PUBCHEM_MMFF94_ENERGY>
4.1175

> <PUBCHEM_FEATURE_SELFOVERLAP>
5.074

> <PUBCHEM_SHAPE_FINGERPRINT>
10219947 1 15913331303394899308
10857977 72 18059564793636144578
11062470 55 18408603668946680621
12932764 1 18040714762242440271
14128692 85 18336836363179453892
14325111 11 18410856568482925251
16945 1 18338517413352766853
20201158 50 18272933816936254295
20653091 64 18409732897632662368
23552423 10 18115309006962577007
29004967 10 17703788098428307586
3248919 1 18131068221129185899
369184 2 15482664654921123335
5084963 1 18334858324797571329

> <PUBCHEM_SHAPE_MULTIPOLES>
203.47
4.92
1.36
0.84
1.94
0.07
0
1.03
0
0.2
0
-0.47
-0.01
0

> <PUBCHEM_SHAPE_SELFOVERLAP>
414.651

> <PUBCHEM_SHAPE_VOLUME>
115.7

> <PUBCHEM_COORDINATE_TYPE>
2
5
10

$$$$
