136821
  -OEChem-07262316193D

  7  6  0     0  0  0  0  0  0999 V2000
   -1.6365    0.0000    0.0000 Si  0  0  0  0  0  0  0  0  0  0  0  0
    0.2183    0.0000   -0.0001 C   0  0  0  0  0  0  0  0  0  0  0  0
    1.4182    0.0000    0.0001 C   0  0  0  0  0  0  0  0  0  0  0  0
   -2.1576   -1.1082    0.8401 H   0  0  0  0  0  0  0  0  0  0  0  0
   -2.1578   -0.1734   -1.3796 H   0  0  0  0  0  0  0  0  0  0  0  0
   -2.1577    1.2815    0.5397 H   0  0  0  0  0  0  0  0  0  0  0  0
    2.4833   -0.0001    0.0002 H   0  0  0  0  0  0  0  0  0  0  0  0
  1  2  1  0  0  0  0
  1  4  1  0  0  0  0
  1  5  1  0  0  0  0
  1  6  1  0  0  0  0
  2  3  3  0  0  0  0
  3  7  1  0  0  0  0
M  END
> <PUBCHEM_COMPOUND_CID>
136821

> <PUBCHEM_CONFORMER_RMSD>
0.4

> <PUBCHEM_CONFORMER_DIVERSEORDER>
1

> <PUBCHEM_MMFF94_PARTIAL_CHARGES>
7
1 0.89
2 -0.29
3 -0.18
4 -0.2
5 -0.2
6 -0.2
7 0.18

> <PUBCHEM_EFFECTIVE_ROTOR_COUNT>
0

> <PUBCHEM_PHARMACOPHORE_FEATURES>
0

> <PUBCHEM_HEAVY_ATOM_COUNT>
3

> <PUBCHEM_ATOM_DEF_STEREO_COUNT>
0

> <PUBCHEM_ATOM_UDEF_STEREO_COUNT>
0

> <PUBCHEM_BOND_DEF_STEREO_COUNT>
0

> <PUBCHEM_BOND_UDEF_STEREO_COUNT>
0

> <PUBCHEM_ISOTOPIC_ATOM_COUNT>
0

> <PUBCHEM_COMPONENT_COUNT>
1

> <PUBCHEM_CACTVS_TAUTO_COUNT>
1

> <PUBCHEM_CONFORMER_ID>
0002167500000001

> <PUBCHEM_MMFF94_ENERGY>
-0.1067

> <PUBCHEM_FEATURE_SELFOVERLAP>
0

> <PUBCHEM_SHAPE_FINGERPRINT>
139733 1 18410855443233135719
20096714 4 9223226356012251471
21015797 1 18122626329606636709
5460574 1 18410575072041914629

> <PUBCHEM_SHAPE_MULTIPOLES>
79.95
2.46
0.77
0.77
0.04
0
0
0
0
0.2
0
0.2
0
0

> <PUBCHEM_SHAPE_SELFOVERLAP>
118.14

> <PUBCHEM_SHAPE_VOLUME>
60.6

> <PUBCHEM_COORDINATE_TYPE>
2
5
10

$$$$
