70899
  -OEChem-07262316193D

  9  8  0     0  0  0  0  0  0999 V2000
    0.5055    1.2482    0.0001 F   0  0  0  0  0  0  0  0  0  0  0  0
   -1.4488   -0.2089    0.0001 C   0  0  0  0  0  0  0  0  0  0  0  0
    0.0294   -0.0182   -0.0002 C   0  0  0  0  0  0  0  0  0  0  0  0
    0.9139   -1.0210    0.0001 C   0  0  0  0  0  0  0  0  0  0  0  0
   -1.7308   -1.2666    0.0004 H   0  0  0  0  0  0  0  0  0  0  0  0
   -1.8849    0.2602   -0.8870 H   0  0  0  0  0  0  0  0  0  0  0  0
   -1.8847    0.2609    0.8869 H   0  0  0  0  0  0  0  0  0  0  0  0
    1.9785   -0.8144    0.0001 H   0  0  0  0  0  0  0  0  0  0  0  0
    0.5964   -2.0579    0.0002 H   0  0  0  0  0  0  0  0  0  0  0  0
  1  3  1  0  0  0  0
  2  3  1  0  0  0  0
  2  5  1  0  0  0  0
  2  6  1  0  0  0  0
  2  7  1  0  0  0  0
  3  4  2  0  0  0  0
  4  8  1  0  0  0  0
  4  9  1  0  0  0  0
M  END
> <PUBCHEM_COMPOUND_CID>
70899

> <PUBCHEM_CONFORMER_RMSD>
0.4

> <PUBCHEM_CONFORMER_DIVERSEORDER>
1

> <PUBCHEM_MMFF94_PARTIAL_CHARGES>
6
1 -0.15
2 0.14
3 0.01
4 -0.3
8 0.15
9 0.15

> <PUBCHEM_EFFECTIVE_ROTOR_COUNT>
0

> <PUBCHEM_PHARMACOPHORE_FEATURES>
0

> <PUBCHEM_HEAVY_ATOM_COUNT>
4

> <PUBCHEM_ATOM_DEF_STEREO_COUNT>
0

> <PUBCHEM_ATOM_UDEF_STEREO_COUNT>
0

> <PUBCHEM_BOND_DEF_STEREO_COUNT>
0

> <PUBCHEM_BOND_UDEF_STEREO_COUNT>
0

> <PUBCHEM_ISOTOPIC_ATOM_COUNT>
0

> <PUBCHEM_COMPONENT_COUNT>
1

> <PUBCHEM_CACTVS_TAUTO_COUNT>
1

> <PUBCHEM_CONFORMER_ID>
000114F300000001

> <PUBCHEM_MMFF94_ENERGY>
0.0434

> <PUBCHEM_FEATURE_SELFOVERLAP>
0

> <PUBCHEM_SHAPE_FINGERPRINT>
139733 1 9294701200223722467
20096714 4 18124598836361032569
21015797 1 9007062344079092387
5943 1 12370953946624369570

> <PUBCHEM_SHAPE_MULTIPOLES>
75.04
1.45
1.13
0.59
0.29
0.33
0
-0.45
0
-0.17
0
0.01
-0.04
0

> <PUBCHEM_SHAPE_SELFOVERLAP>
127.644

> <PUBCHEM_SHAPE_VOLUME>
51.3

> <PUBCHEM_COORDINATE_TYPE>
2
5
10

$$$$
