123304
  -OEChem-07262316203D

  3  2  0     0  0  0  0  0  0999 V2000
   -1.4248   -0.1782    0.0000 Br  0  0  0  0  0  0  0  0  0  0  0  0
    1.1386   -0.3577    0.0000 O   0  0  0  0  0  0  0  0  0  0  0  0
    0.2862    0.5359    0.0000 N   0  0  0  0  0  0  0  0  0  0  0  0
  1  3  1  0  0  0  0
  2  3  2  0  0  0  0
M  END
> <PUBCHEM_COMPOUND_CID>
123304

> <PUBCHEM_CONFORMER_RMSD>
0.4

> <PUBCHEM_CONFORMER_DIVERSEORDER>
1

> <PUBCHEM_MMFF94_PARTIAL_CHARGES>
3
1 0.19
2 -0.16
3 -0.03

> <PUBCHEM_EFFECTIVE_ROTOR_COUNT>
0

> <PUBCHEM_PHARMACOPHORE_FEATURES>
0

> <PUBCHEM_HEAVY_ATOM_COUNT>
3

> <PUBCHEM_ATOM_DEF_STEREO_COUNT>
0

> <PUBCHEM_ATOM_UDEF_STEREO_COUNT>
0

> <PUBCHEM_BOND_DEF_STEREO_COUNT>
0

> <PUBCHEM_BOND_UDEF_STEREO_COUNT>
0

> <PUBCHEM_ISOTOPIC_ATOM_COUNT>
0

> <PUBCHEM_COMPONENT_COUNT>
1

> <PUBCHEM_CACTVS_TAUTO_COUNT>
1

> <PUBCHEM_CONFORMER_ID>
0001E1A800000001

> <PUBCHEM_MMFF94_ENERGY>
0

> <PUBCHEM_FEATURE_SELFOVERLAP>
0

> <PUBCHEM_SHAPE_FINGERPRINT>
139733 1 18122626325222258436
20096714 4 8574710208678357367
21015797 1 18197214960757012333

> <PUBCHEM_SHAPE_MULTIPOLES>
56.83
1.83
0.73
0.61
0.26
0
0
-0.22
0
0.02
0
0.12
-0.01
0

> <PUBCHEM_SHAPE_SELFOVERLAP>
79.767

> <PUBCHEM_SHAPE_VOLUME>
45.1

> <PUBCHEM_COORDINATE_TYPE>
2
5
10

$$$$
