123318
  -OEChem-07262316193D

  9  8  0     0  0  0  0  0  0999 V2000
   -1.5686    0.1810    0.0000 Si  0  0  0  0  0  0  0  0  0  0  0  0
    1.5686    0.1810    0.0000 Si  0  0  0  0  0  0  0  0  0  0  0  0
    0.0000   -0.3620    0.0000 O   0  0  0  0  0  0  0  0  0  0  0  0
   -2.5003   -0.9754    0.0000 H   0  0  0  0  0  0  0  0  0  0  0  0
   -1.8244    1.0040    1.2100 H   0  0  0  0  0  0  0  0  0  0  0  0
   -1.8245    1.0041   -1.2099 H   0  0  0  0  0  0  0  0  0  0  0  0
    1.8244    1.0041   -1.2100 H   0  0  0  0  0  0  0  0  0  0  0  0
    2.5003   -0.9753    0.0001 H   0  0  0  0  0  0  0  0  0  0  0  0
    1.8244    1.0040    1.2100 H   0  0  0  0  0  0  0  0  0  0  0  0
  1  3  1  0  0  0  0
  1  4  1  0  0  0  0
  1  5  1  0  0  0  0
  1  6  1  0  0  0  0
  2  3  1  0  0  0  0
  2  7  1  0  0  0  0
  2  8  1  0  0  0  0
  2  9  1  0  0  0  0
M  END
> <PUBCHEM_COMPOUND_CID>
123318

> <PUBCHEM_CONFORMER_RMSD>
0.4

> <PUBCHEM_CONFORMER_DIVERSEORDER>
1

> <PUBCHEM_MMFF94_PARTIAL_CHARGES>
9
1 0.9
2 0.9
3 -0.59
4 -0.2
5 -0.2
6 -0.2
7 -0.2
8 -0.2
9 -0.2

> <PUBCHEM_EFFECTIVE_ROTOR_COUNT>
0

> <PUBCHEM_PHARMACOPHORE_FEATURES>
0

> <PUBCHEM_HEAVY_ATOM_COUNT>
3

> <PUBCHEM_ATOM_DEF_STEREO_COUNT>
0

> <PUBCHEM_ATOM_UDEF_STEREO_COUNT>
0

> <PUBCHEM_BOND_DEF_STEREO_COUNT>
0

> <PUBCHEM_BOND_UDEF_STEREO_COUNT>
0

> <PUBCHEM_ISOTOPIC_ATOM_COUNT>
0

> <PUBCHEM_COMPONENT_COUNT>
1

> <PUBCHEM_CACTVS_TAUTO_COUNT>
1

> <PUBCHEM_CONFORMER_ID>
0001E1B600000001

> <PUBCHEM_MMFF94_ENERGY>
0.0507

> <PUBCHEM_FEATURE_SELFOVERLAP>
0

> <PUBCHEM_SHAPE_FINGERPRINT>
139733 1 18410856563934821829
16714656 1 9799693722433351209
20096714 4 8862933987770760974
21015797 1 18048319134693896044
29004967 10 9511457840159907300
5460574 1 18410856551065731205

> <PUBCHEM_SHAPE_MULTIPOLES>
92.29
2.94
0.91
0.87
0
0.08
0
0.21
0
0
0
0
0.03
0

> <PUBCHEM_SHAPE_SELFOVERLAP>
125.789

> <PUBCHEM_SHAPE_VOLUME>
75.8

> <PUBCHEM_COORDINATE_TYPE>
2
5
10

$$$$
