5462838
  -OEChem-07262316193D

  4  3  0     0  0  0  0  0  0999 V2000
    1.6985   -0.1137    0.0001 F   0  0  0  0  0  0  0  0  0  0  0  0
   -1.6985    0.1137    0.0001 F   0  0  0  0  0  0  0  0  0  0  0  0
    0.4409    0.4381   -0.0001 N   0  0  0  0  0  0  0  0  0  0  0  0
   -0.4409   -0.4380   -0.0001 N   0  0  0  0  0  0  0  0  0  0  0  0
  1  3  1  0  0  0  0
  2  4  1  0  0  0  0
  3  4  2  0  0  0  0
M  END
> <PUBCHEM_COMPOUND_CID>
5462838

> <PUBCHEM_CONFORMER_RMSD>
0.4

> <PUBCHEM_CONFORMER_DIVERSEORDER>
1

> <PUBCHEM_MMFF94_PARTIAL_CHARGES>
4
1 -0.01
2 -0.01
3 0.01
4 0.01

> <PUBCHEM_EFFECTIVE_ROTOR_COUNT>
0

> <PUBCHEM_PHARMACOPHORE_FEATURES>
0

> <PUBCHEM_HEAVY_ATOM_COUNT>
4

> <PUBCHEM_ATOM_DEF_STEREO_COUNT>
0

> <PUBCHEM_ATOM_UDEF_STEREO_COUNT>
0

> <PUBCHEM_BOND_DEF_STEREO_COUNT>
1

> <PUBCHEM_BOND_UDEF_STEREO_COUNT>
0

> <PUBCHEM_ISOTOPIC_ATOM_COUNT>
0

> <PUBCHEM_COMPONENT_COUNT>
1

> <PUBCHEM_CACTVS_TAUTO_COUNT>
1

> <PUBCHEM_CONFORMER_ID>
00535B3600000001

> <PUBCHEM_MMFF94_ENERGY>
-0.0538

> <PUBCHEM_FEATURE_SELFOVERLAP>
0

> <PUBCHEM_SHAPE_FINGERPRINT>
139733 1 9295287244300443554
20096714 4 18337112366309988909
21015797 1 9293558811858042912
5460574 1 9223235143362150402

> <PUBCHEM_SHAPE_MULTIPOLES>
57.81
1.92
0.6
0.49
0
0
0
0
0
0
0
0
0
0

> <PUBCHEM_SHAPE_SELFOVERLAP>
95.043

> <PUBCHEM_SHAPE_VOLUME>
39.2

> <PUBCHEM_COORDINATE_TYPE>
2
5
10

$$$$
