12756813
  -OEChem-07262316203D

  7  6  0     0  0  0  0  0  0999 V2000
    1.6177   -1.4448    0.0318 Cl  0  0  0  0  0  0  0  0  0  0  0  0
    1.6175    1.4448    0.0326 Cl  0  0  0  0  0  0  0  0  0  0  0  0
   -0.7248   -0.0531    1.3411 F   0  0  0  0  0  0  0  0  0  0  0  0
   -1.3204   -1.0612   -0.5061 F   0  0  0  0  0  0  0  0  0  0  0  0
   -1.2915    1.1146   -0.4190 F   0  0  0  0  0  0  0  0  0  0  0  0
    0.7391    0.0000   -0.4705 N   0  0  0  0  0  0  0  0  0  0  0  0
   -0.6376   -0.0002   -0.0098 C   0  0  0  0  0  0  0  0  0  0  0  0
  1  6  1  0  0  0  0
  2  6  1  0  0  0  0
  3  7  1  0  0  0  0
  4  7  1  0  0  0  0
  5  7  1  0  0  0  0
  6  7  1  0  0  0  0
M  END
> <PUBCHEM_COMPOUND_CID>
12756813

> <PUBCHEM_CONFORMER_RMSD>
0.4

> <PUBCHEM_CONFORMER_DIVERSEORDER>
1

> <PUBCHEM_MMFF94_PARTIAL_CHARGES>
7
1 -0.05
2 -0.05
3 -0.34
4 -0.34
5 -0.34
6 -0.17
7 1.29

> <PUBCHEM_EFFECTIVE_ROTOR_COUNT>
1

> <PUBCHEM_PHARMACOPHORE_FEATURES>
0

> <PUBCHEM_HEAVY_ATOM_COUNT>
7

> <PUBCHEM_ATOM_DEF_STEREO_COUNT>
0

> <PUBCHEM_ATOM_UDEF_STEREO_COUNT>
0

> <PUBCHEM_BOND_DEF_STEREO_COUNT>
0

> <PUBCHEM_BOND_UDEF_STEREO_COUNT>
0

> <PUBCHEM_ISOTOPIC_ATOM_COUNT>
0

> <PUBCHEM_COMPONENT_COUNT>
1

> <PUBCHEM_CACTVS_TAUTO_COUNT>
1

> <PUBCHEM_CONFORMER_ID>
00C2A74D00000001

> <PUBCHEM_MMFF94_ENERGY>
1.728

> <PUBCHEM_FEATURE_SELFOVERLAP>
0

> <PUBCHEM_SHAPE_FINGERPRINT>
16714656 1 17690841160032905078
20096714 4 18411140208002048284
24536 1 17240493536615363276
29004967 10 17972886035932942355
5943 1 14248109557196134987

> <PUBCHEM_SHAPE_MULTIPOLES>
120.99
2.06
1.6
0.84
0.29
0.02
0.23
0
-0.09
0.77
-0.09
-0.16
-0.02
-0.01

> <PUBCHEM_SHAPE_SELFOVERLAP>
207.011

> <PUBCHEM_SHAPE_VOLUME>
83.4

> <PUBCHEM_COORDINATE_TYPE>
2
5
10

$$$$
