139672
  -OEChem-07262316193D

  5  4  0     0  0  0  0  0  0999 V2000
    2.0822    0.0000    0.0005 Br  0  0  0  0  0  0  0  0  0  0  0  0
   -0.1194   -0.0001    0.0000 Si  0  0  0  0  0  0  0  0  0  0  0  0
   -0.6548    0.7370    1.3121 F   0  0  0  0  0  0  0  0  0  0  0  0
   -0.6537    0.7681   -1.2945 F   0  0  0  0  0  0  0  0  0  0  0  0
   -0.6543   -1.5049   -0.0181 F   0  0  0  0  0  0  0  0  0  0  0  0
  1  2  1  0  0  0  0
  2  3  1  0  0  0  0
  2  4  1  0  0  0  0
  2  5  1  0  0  0  0
M  END
> <PUBCHEM_COMPOUND_CID>
139672

> <PUBCHEM_CONFORMER_RMSD>
0.4

> <PUBCHEM_CONFORMER_DIVERSEORDER>
1

> <PUBCHEM_MMFF94_PARTIAL_CHARGES>
5
1 -0.33
2 1.57
3 -0.41
4 -0.41
5 -0.41

> <PUBCHEM_EFFECTIVE_ROTOR_COUNT>
0

> <PUBCHEM_PHARMACOPHORE_FEATURES>
0

> <PUBCHEM_HEAVY_ATOM_COUNT>
5

> <PUBCHEM_ATOM_DEF_STEREO_COUNT>
0

> <PUBCHEM_ATOM_UDEF_STEREO_COUNT>
0

> <PUBCHEM_BOND_DEF_STEREO_COUNT>
0

> <PUBCHEM_BOND_UDEF_STEREO_COUNT>
0

> <PUBCHEM_ISOTOPIC_ATOM_COUNT>
0

> <PUBCHEM_COMPONENT_COUNT>
1

> <PUBCHEM_CACTVS_TAUTO_COUNT>
1

> <PUBCHEM_CONFORMER_ID>
0002219800000001

> <PUBCHEM_MMFF94_ENERGY>
0.0624

> <PUBCHEM_FEATURE_SELFOVERLAP>
0

> <PUBCHEM_SHAPE_FINGERPRINT>
139733 1 9078025941459549346
16714656 1 18041266738301349327
20096714 4 16735493184759462420
24536 1 18131630084772346968
29004967 10 17170961645282557106
5943 1 13363107957683877251

> <PUBCHEM_SHAPE_MULTIPOLES>
105.23
1.91
1.14
1.14
1.5
0.25
-0.21
0
0
-0.32
0.21
-0.32
-0.25
0

> <PUBCHEM_SHAPE_SELFOVERLAP>
165.985

> <PUBCHEM_SHAPE_VOLUME>
74.7

> <PUBCHEM_COORDINATE_TYPE>
2
5
10

$$$$
