139671
  -OEChem-07262316193D

  5  4  0     0  0  0  0  0  0999 V2000
    1.9574   -0.0001    0.0001 Cl  0  0  0  0  0  0  0  0  0  0  0  0
   -0.0887    0.0000    0.0000 Si  0  0  0  0  0  0  0  0  0  0  0  0
   -0.6228    0.0596   -1.5041 F   0  0  0  0  0  0  0  0  0  0  0  0
   -0.6230   -1.3324    0.7004 F   0  0  0  0  0  0  0  0  0  0  0  0
   -0.6229    1.2728    0.8037 F   0  0  0  0  0  0  0  0  0  0  0  0
  1  2  1  0  0  0  0
  2  3  1  0  0  0  0
  2  4  1  0  0  0  0
  2  5  1  0  0  0  0
M  END
> <PUBCHEM_COMPOUND_CID>
139671

> <PUBCHEM_CONFORMER_RMSD>
0.4

> <PUBCHEM_CONFORMER_DIVERSEORDER>
1

> <PUBCHEM_MMFF94_PARTIAL_CHARGES>
5
1 -0.37
2 1.6
3 -0.41
4 -0.41
5 -0.41

> <PUBCHEM_EFFECTIVE_ROTOR_COUNT>
0

> <PUBCHEM_PHARMACOPHORE_FEATURES>
0

> <PUBCHEM_HEAVY_ATOM_COUNT>
5

> <PUBCHEM_ATOM_DEF_STEREO_COUNT>
0

> <PUBCHEM_ATOM_UDEF_STEREO_COUNT>
0

> <PUBCHEM_BOND_DEF_STEREO_COUNT>
0

> <PUBCHEM_BOND_UDEF_STEREO_COUNT>
0

> <PUBCHEM_ISOTOPIC_ATOM_COUNT>
0

> <PUBCHEM_COMPONENT_COUNT>
1

> <PUBCHEM_CACTVS_TAUTO_COUNT>
1

> <PUBCHEM_CONFORMER_ID>
0002219700000001

> <PUBCHEM_MMFF94_ENERGY>
0.0647

> <PUBCHEM_FEATURE_SELFOVERLAP>
0

> <PUBCHEM_SHAPE_FINGERPRINT>
139733 1 15504319458983552140
20096714 4 17698731307002857776
21015797 1 8428028884916856745
24536 1 18411134740935746896
5943 1 16828921865746577671

> <PUBCHEM_SHAPE_MULTIPOLES>
101.16
1.67
1.13
1.13
1.21
0.33
0.09
0
0
-0.32
-0.09
-0.32
-0.33
0

> <PUBCHEM_SHAPE_SELFOVERLAP>
162.713

> <PUBCHEM_SHAPE_VOLUME>
70.3

> <PUBCHEM_COORDINATE_TYPE>
2
5
10

$$$$
