137036
  -OEChem-07262316193D

  3  2  0     0  0  0  0  0  0999 V2000
   -1.2786    0.0000    0.0000 F   0  0  0  0  0  0  0  0  0  0  0  0
    1.2193    0.0000    0.0000 N   0  0  0  0  0  0  0  0  0  0  0  0
    0.0593    0.0000    0.0001 C   0  0  0  0  0  0  0  0  0  0  0  0
  1  3  1  0  0  0  0
  2  3  3  0  0  0  0
M  END
> <PUBCHEM_COMPOUND_CID>
137036

> <PUBCHEM_CONFORMER_RMSD>
0.4

> <PUBCHEM_CONFORMER_DIVERSEORDER>
1

> <PUBCHEM_MMFF94_PARTIAL_CHARGES>
3
1 -0.12
2 -0.56
3 0.67

> <PUBCHEM_EFFECTIVE_ROTOR_COUNT>
0

> <PUBCHEM_PHARMACOPHORE_FEATURES>
1
1 2 acceptor

> <PUBCHEM_HEAVY_ATOM_COUNT>
3

> <PUBCHEM_ATOM_DEF_STEREO_COUNT>
0

> <PUBCHEM_ATOM_UDEF_STEREO_COUNT>
0

> <PUBCHEM_BOND_DEF_STEREO_COUNT>
0

> <PUBCHEM_BOND_UDEF_STEREO_COUNT>
0

> <PUBCHEM_ISOTOPIC_ATOM_COUNT>
0

> <PUBCHEM_COMPONENT_COUNT>
1

> <PUBCHEM_CACTVS_TAUTO_COUNT>
1

> <PUBCHEM_CONFORMER_ID>
0002174C00000001

> <PUBCHEM_MMFF94_ENERGY>
0

> <PUBCHEM_FEATURE_SELFOVERLAP>
5.074

> <PUBCHEM_SHAPE_FINGERPRINT>
139733 1 18410575119144227524
21015797 1 18122624130567556900

> <PUBCHEM_SHAPE_MULTIPOLES>
49.48
1.45
0.54
0.54
0.11
0
0
0
0
-0.02
0
-0.02
0
0

> <PUBCHEM_SHAPE_SELFOVERLAP>
80.637

> <PUBCHEM_SHAPE_VOLUME>
32.8

> <PUBCHEM_COORDINATE_TYPE>
2
5
10

$$$$
