137046
  -OEChem-07262316203D

  8  7  0     0  0  0  0  0  0999 V2000
    1.4093   -0.0951    0.5052 S   0  0  0  0  0  0  0  0  0  0  0  0
   -1.1778    1.2704   -0.1526 F   0  0  0  0  0  0  0  0  0  0  0  0
   -2.0302   -0.5999   -0.8849 F   0  0  0  0  0  0  0  0  0  0  0  0
   -1.5092   -0.3842    1.2312 F   0  0  0  0  0  0  0  0  0  0  0  0
    2.5707   -0.9016   -0.2198 F   0  0  0  0  0  0  0  0  0  0  0  0
    1.6329    1.3394   -0.1398 F   0  0  0  0  0  0  0  0  0  0  0  0
    0.2242   -0.5516   -0.3101 N   0  0  0  0  0  0  0  0  0  0  0  0
   -1.1198   -0.0775   -0.0292 C   0  0  0  0  0  0  0  0  0  0  0  0
  1  5  1  0  0  0  0
  1  6  1  0  0  0  0
  1  7  2  0  0  0  0
  2  8  1  0  0  0  0
  3  8  1  0  0  0  0
  4  8  1  0  0  0  0
  7  8  1  0  0  0  0
M  END
> <PUBCHEM_COMPOUND_CID>
137046

> <PUBCHEM_CONFORMER_RMSD>
0.4

> <PUBCHEM_CONFORMER_DIVERSEORDER>
1
2

> <PUBCHEM_MMFF94_PARTIAL_CHARGES>
8
1 0.59
2 -0.34
3 -0.34
4 -0.34
5 -0.13
6 -0.13
7 -0.86
8 1.54

> <PUBCHEM_EFFECTIVE_ROTOR_COUNT>
1

> <PUBCHEM_PHARMACOPHORE_FEATURES>
0

> <PUBCHEM_HEAVY_ATOM_COUNT>
8

> <PUBCHEM_ATOM_DEF_STEREO_COUNT>
0

> <PUBCHEM_ATOM_UDEF_STEREO_COUNT>
0

> <PUBCHEM_BOND_DEF_STEREO_COUNT>
0

> <PUBCHEM_BOND_UDEF_STEREO_COUNT>
0

> <PUBCHEM_ISOTOPIC_ATOM_COUNT>
0

> <PUBCHEM_COMPONENT_COUNT>
1

> <PUBCHEM_CACTVS_TAUTO_COUNT>
1

> <PUBCHEM_CONFORMER_ID>
0002175600000001

> <PUBCHEM_MMFF94_ENERGY>
5.8835

> <PUBCHEM_FEATURE_SELFOVERLAP>
0

> <PUBCHEM_SHAPE_FINGERPRINT>
12932741 1 17603866736385160390
20096714 4 18409728465215765728
24536 1 18040150738373264536
29004967 10 18188493600102509889
5084963 1 18060131046519785986
5460574 1 11025798674072709158

> <PUBCHEM_SHAPE_MULTIPOLES>
127.14
2.91
1.07
0.84
0.77
0.36
0.19
-0.42
-0.24
0.22
-0.11
-0.3
-0.12
0.01

> <PUBCHEM_SHAPE_SELFOVERLAP>
231.544

> <PUBCHEM_SHAPE_VOLUME>
82.1

> <PUBCHEM_COORDINATE_TYPE>
2
5
10

$$$$
