204018
  -OEChem-07262316203D

  4  3  0     0  0  0  0  0  0999 V2000
    1.5859    0.8445   -0.1798 Cl  0  0  0  0  0  0  0  0  0  0  0  0
   -1.5863    0.8440   -0.1798 Cl  0  0  0  0  0  0  0  0  0  0  0  0
    0.0001   -0.2333    0.6765 P   0  0  0  0  0  0  0  0  0  0  0  0
    0.0003   -1.4552   -0.3170 F   0  0  0  0  0  0  0  0  0  0  0  0
  1  3  1  0  0  0  0
  2  3  1  0  0  0  0
  3  4  1  0  0  0  0
M  END
> <PUBCHEM_COMPOUND_CID>
204018

> <PUBCHEM_CONFORMER_RMSD>
0.4

> <PUBCHEM_CONFORMER_DIVERSEORDER>
1

> <PUBCHEM_MMFF94_PARTIAL_CHARGES>
4
1 -0.21
2 -0.21
3 0.6
4 -0.17

> <PUBCHEM_EFFECTIVE_ROTOR_COUNT>
0

> <PUBCHEM_PHARMACOPHORE_FEATURES>
0

> <PUBCHEM_HEAVY_ATOM_COUNT>
4

> <PUBCHEM_ATOM_DEF_STEREO_COUNT>
0

> <PUBCHEM_ATOM_UDEF_STEREO_COUNT>
0

> <PUBCHEM_BOND_DEF_STEREO_COUNT>
0

> <PUBCHEM_BOND_UDEF_STEREO_COUNT>
0

> <PUBCHEM_ISOTOPIC_ATOM_COUNT>
0

> <PUBCHEM_COMPONENT_COUNT>
1

> <PUBCHEM_CACTVS_TAUTO_COUNT>
1

> <PUBCHEM_CONFORMER_ID>
00031CF200000001

> <PUBCHEM_MMFF94_ENERGY>
0

> <PUBCHEM_FEATURE_SELFOVERLAP>
0

> <PUBCHEM_SHAPE_FINGERPRINT>
139733 1 18334858320223152640
16714656 1 18122350335066243993
20096714 4 18260827098602847488
21015797 1 9870656224380623066
5943 1 8633348009758870627

> <PUBCHEM_SHAPE_MULTIPOLES>
82.63
2
1.36
0.79
0
0.31
0.1
-1.01
-0.19
0
-0.2
0
0.07
0

> <PUBCHEM_SHAPE_SELFOVERLAP>
110.439

> <PUBCHEM_SHAPE_VOLUME>
67.5

> <PUBCHEM_COORDINATE_TYPE>
2
5
10

$$$$
