139956
  -OEChem-07262316193D

  4  3  0     0  0  0  0  0  0999 V2000
   -1.8183    0.0000   -0.1431 Br  0  0  0  0  0  0  0  0  0  0  0  0
    0.2176    0.0000    0.6429 P   0  0  0  0  0  0  0  0  0  0  0  0
    0.8004    1.1593   -0.2499 F   0  0  0  0  0  0  0  0  0  0  0  0
    0.8003   -1.1594   -0.2499 F   0  0  0  0  0  0  0  0  0  0  0  0
  1  2  1  0  0  0  0
  2  3  1  0  0  0  0
  2  4  1  0  0  0  0
M  END
> <PUBCHEM_COMPOUND_CID>
139956

> <PUBCHEM_CONFORMER_RMSD>
0.4

> <PUBCHEM_CONFORMER_DIVERSEORDER>
1

> <PUBCHEM_MMFF94_PARTIAL_CHARGES>
4
1 -0.1
2 0.45
3 -0.17
4 -0.17

> <PUBCHEM_EFFECTIVE_ROTOR_COUNT>
0

> <PUBCHEM_PHARMACOPHORE_FEATURES>
0

> <PUBCHEM_HEAVY_ATOM_COUNT>
4

> <PUBCHEM_ATOM_DEF_STEREO_COUNT>
0

> <PUBCHEM_ATOM_UDEF_STEREO_COUNT>
0

> <PUBCHEM_BOND_DEF_STEREO_COUNT>
0

> <PUBCHEM_BOND_UDEF_STEREO_COUNT>
0

> <PUBCHEM_ISOTOPIC_ATOM_COUNT>
0

> <PUBCHEM_COMPONENT_COUNT>
1

> <PUBCHEM_CACTVS_TAUTO_COUNT>
1

> <PUBCHEM_CONFORMER_ID>
000222B400000001

> <PUBCHEM_MMFF94_ENERGY>
0

> <PUBCHEM_FEATURE_SELFOVERLAP>
0

> <PUBCHEM_SHAPE_FINGERPRINT>
139733 1 8285326449160934203
20096714 4 18189894403891997265
21015797 1 8286201617298036097
5943 1 10858830608932696018

> <PUBCHEM_SHAPE_MULTIPOLES>
77.56
1.92
1.09
0.77
1.14
0
0.12
0
-0.15
-0.38
-0.15
0
0
0

> <PUBCHEM_SHAPE_SELFOVERLAP>
109.464

> <PUBCHEM_SHAPE_VOLUME>
61.3

> <PUBCHEM_COORDINATE_TYPE>
2
5
10

$$$$
