6710639
  -OEChem-07262316203D

 36 38  0     0  0  0  0  0  0999 V2000
    1.2971    1.6737    0.0586 O   0  0  0  0  0  0  0  0  0  0  0  0
    5.7139   -0.0675    0.3452 O   0  0  0  0  0  0  0  0  0  0  0  0
    3.9718    2.0788    0.2411 O   0  0  0  0  0  0  0  0  0  0  0  0
   -0.2951   -2.0794   -0.1074 O   0  0  0  0  0  0  0  0  0  0  0  0
   -6.2943   -0.0260   -0.3034 O   0  0  0  0  0  0  0  0  0  0  0  0
    1.6269   -0.7308    0.0648 C   0  0  0  0  0  0  0  0  0  0  0  0
   -0.6808    0.2699   -0.0670 C   0  0  0  0  0  0  0  0  0  0  0  0
    2.1155    0.5745    0.1070 C   0  0  0  0  0  0  0  0  0  0  0  0
    0.1724   -0.9501   -0.0382 C   0  0  0  0  0  0  0  0  0  0  0  0
   -2.1494    0.1922   -0.1285 C   0  0  0  0  0  0  0  0  0  0  0  0
    3.4884    0.8048    0.2001 C   0  0  0  0  0  0  0  0  0  0  0  0
    2.5088   -1.8136    0.1161 C   0  0  0  0  0  0  0  0  0  0  0  0
   -0.0576    1.4569   -0.0157 C   0  0  0  0  0  0  0  0  0  0  0  0
    4.3705   -0.2745    0.2521 C   0  0  0  0  0  0  0  0  0  0  0  0
    3.8816   -1.5808    0.2104 C   0  0  0  0  0  0  0  0  0  0  0  0
   -2.7991    0.1815   -1.3647 C   0  0  0  0  0  0  0  0  0  0  0  0
   -2.8982    0.1286    1.0487 C   0  0  0  0  0  0  0  0  0  0  0  0
   -4.1910    0.1082   -1.4235 C   0  0  0  0  0  0  0  0  0  0  0  0
   -4.2900    0.0555    0.9901 C   0  0  0  0  0  0  0  0  0  0  0  0
   -4.9364    0.0453   -0.2461 C   0  0  0  0  0  0  0  0  0  0  0  0
    6.4392    0.0404   -0.8780 C   0  0  0  0  0  0  0  0  0  0  0  0
   -6.9943   -0.0876    0.9384 C   0  0  0  0  0  0  0  0  0  0  0  0
    2.1486   -2.8380    0.0846 H   0  0  0  0  0  0  0  0  0  0  0  0
   -0.5745    2.4087   -0.0257 H   0  0  0  0  0  0  0  0  0  0  0  0
    4.5659   -2.4241    0.2515 H   0  0  0  0  0  0  0  0  0  0  0  0
   -2.2322    0.2291   -2.2915 H   0  0  0  0  0  0  0  0  0  0  0  0
   -2.4081    0.1349    2.0195 H   0  0  0  0  0  0  0  0  0  0  0  0
   -4.6889    0.1002   -2.3892 H   0  0  0  0  0  0  0  0  0  0  0  0
   -4.8070    0.0089    1.9424 H   0  0  0  0  0  0  0  0  0  0  0  0
    3.2194    2.6939    0.1940 H   0  0  0  0  0  0  0  0  0  0  0  0
    7.4919    0.2132   -0.6381 H   0  0  0  0  0  0  0  0  0  0  0  0
    6.0724    0.8841   -1.4710 H   0  0  0  0  0  0  0  0  0  0  0  0
    6.3591   -0.8869   -1.4541 H   0  0  0  0  0  0  0  0  0  0  0  0
   -6.8410    0.8199    1.5322 H   0  0  0  0  0  0  0  0  0  0  0  0
   -6.7443   -0.9963    1.4966 H   0  0  0  0  0  0  0  0  0  0  0  0
   -8.0628   -0.1399    0.7049 H   0  0  0  0  0  0  0  0  0  0  0  0
  1  8  1  0  0  0  0
  1 13  1  0  0  0  0
  2 14  1  0  0  0  0
  2 21  1  0  0  0  0
  3 11  1  0  0  0  0
  3 30  1  0  0  0  0
  4  9  2  0  0  0  0
  5 20  1  0  0  0  0
  5 22  1  0  0  0  0
  6  8  2  0  0  0  0
  6  9  1  0  0  0  0
  6 12  1  0  0  0  0
  7  9  1  0  0  0  0
  7 10  1  0  0  0  0
  7 13  2  0  0  0  0
  8 11  1  0  0  0  0
 10 16  2  0  0  0  0
 10 17  1  0  0  0  0
 11 14  2  0  0  0  0
 12 15  2  0  0  0  0
 12 23  1  0  0  0  0
 13 24  1  0  0  0  0
 14 15  1  0  0  0  0
 15 25  1  0  0  0  0
 16 18  1  0  0  0  0
 16 26  1  0  0  0  0
 17 19  2  0  0  0  0
 17 27  1  0  0  0  0
 18 20  2  0  0  0  0
 18 28  1  0  0  0  0
 19 20  1  0  0  0  0
 19 29  1  0  0  0  0
 21 31  1  0  0  0  0
 21 32  1  0  0  0  0
 21 33  1  0  0  0  0
 22 34  1  0  0  0  0
 22 35  1  0  0  0  0
 22 36  1  0  0  0  0
M  END
> <PUBCHEM_COMPOUND_CID>
6710639

> <PUBCHEM_CONFORMER_RMSD>
0.6

> <PUBCHEM_CONFORMER_DIVERSEORDER>
1
5
6
3
2
4

> <PUBCHEM_MMFF94_PARTIAL_CHARGES>
30
1 -0.16
10 0.03
11 0.08
12 -0.15
13 -0.07
14 0.08
15 -0.15
16 -0.15
17 -0.15
18 -0.15
19 -0.15
2 -0.36
20 0.08
21 0.28
22 0.28
23 0.15
24 0.15
25 0.15
26 0.15
27 0.15
28 0.15
29 0.15
3 -0.53
30 0.45
4 -0.57
5 -0.36
6 0.09
7 -0.01
8 0.08
9 0.47

> <PUBCHEM_EFFECTIVE_ROTOR_COUNT>
3

> <PUBCHEM_PHARMACOPHORE_FEATURES>
8
1 1 acceptor
1 2 acceptor
1 3 donor
1 4 acceptor
1 5 acceptor
6 1 6 7 8 9 13 rings
6 10 16 17 18 19 20 rings
6 6 8 11 12 14 15 rings

> <PUBCHEM_HEAVY_ATOM_COUNT>
22

> <PUBCHEM_ATOM_DEF_STEREO_COUNT>
0

> <PUBCHEM_ATOM_UDEF_STEREO_COUNT>
0

> <PUBCHEM_BOND_DEF_STEREO_COUNT>
0

> <PUBCHEM_BOND_UDEF_STEREO_COUNT>
0

> <PUBCHEM_ISOTOPIC_ATOM_COUNT>
0

> <PUBCHEM_COMPONENT_COUNT>
1

> <PUBCHEM_CACTVS_TAUTO_COUNT>
3

> <PUBCHEM_CONFORMER_ID>
0066656F00000001

> <PUBCHEM_MMFF94_ENERGY>
86.482

> <PUBCHEM_FEATURE_SELFOVERLAP>
40.626

> <PUBCHEM_SHAPE_FINGERPRINT>
10 15 17895187853483457784
10411042 1 18122906418201207890
11578080 2 17129563899068796698
11796584 16 14764346054931998324
12011746 2 18409169904940376086
12107183 9 17338731357330650939
12236239 1 17703789236927067261
12403259 415 18260536836165429453
12596602 18 17346311652511871547
12616971 3 18059568101125017981
12730499 353 18259985968361057090
13140716 1 18266735964938586736
13533116 47 17846498084890509742
13862211 1 18411975837403601914
14341114 176 18408608059104838177
14386348 63 17822012008426587121
15196674 1 18339358690251342354
15788980 27 17530963596599389343
17844677 252 18333452023798728421
19489759 90 16008746892757619303
200 152 18343295947233339697
20645477 70 18336542724908498082
21033648 29 18042105652820550349
21033650 10 16342327751173103616
21267235 1 18411985728607659646
21623969 137 18335426763824971531
21641784 216 18115040601930889700
2297311 6 16805604750891141741
23035841 295 17489868223945201343
23402539 116 16558746814842703097
23536379 177 15913331282183722534
23557571 272 16878220874997114317
23559900 14 15936698154567962885
23569943 247 17557723373443235438
26918003 58 18334859424551695145
29717793 49 17275108336227961588
335352 9 18411702102237397398
3411729 13 15503238828448741708
345986 75 17987226742845292946
34797466 226 16298395651361781462
3545911 37 18334576853857397587
4073 2 18041565844699202107
42630746 31 18342459231337104358
4340502 62 16877661249374974738
465052 167 18260268533768889554
5104073 3 18267293408311710634
542803 24 17704352169552789921
59755656 520 18413668028558973151
7495541 125 17095814290790595773
9999458 23 18114180865531153460

> <PUBCHEM_SHAPE_MULTIPOLES>
423.4
14.98
1.51
0.99
6.64
0.1
-0.16
-0.06
0.42
-1.77
0.08
1.04
-0.03
0.12

> <PUBCHEM_SHAPE_SELFOVERLAP>
933.348

> <PUBCHEM_SHAPE_VOLUME>
228

> <PUBCHEM_COORDINATE_TYPE>
2
5
10

$$$$
