15373
  -OEChem-07262316203D

  8  7  0     1  0  0  0  0  0999 V2000
   -1.5823    0.2896   -0.1050 Cl  0  0  0  0  0  0  0  0  0  0  0  0
    0.4655   -1.2513   -0.1455 F   0  0  0  0  0  0  0  0  0  0  0  0
    0.0888   -0.0554    0.3788 C   0  0  1  0  0  0  0  0  0  0  0  0
    1.0280    1.0171   -0.1284 C   0  0  0  0  0  0  0  0  0  0  0  0
    0.1258   -0.1330    1.4689 H   0  0  0  0  0  0  0  0  0  0  0  0
    1.0154    1.0649   -1.2225 H   0  0  0  0  0  0  0  0  0  0  0  0
    0.7686    2.0024    0.2710 H   0  0  0  0  0  0  0  0  0  0  0  0
    2.0561    0.7839    0.1668 H   0  0  0  0  0  0  0  0  0  0  0  0
  1  3  1  0  0  0  0
  2  3  1  0  0  0  0
  3  4  1  0  0  0  0
  3  5  1  0  0  0  0
  4  6  1  0  0  0  0
  4  7  1  0  0  0  0
  4  8  1  0  0  0  0
M  END
> <PUBCHEM_COMPOUND_CID>
15373

> <PUBCHEM_CONFORMER_RMSD>
0.4

> <PUBCHEM_CONFORMER_DIVERSEORDER>
1
2

> <PUBCHEM_MMFF94_PARTIAL_CHARGES>
3
1 -0.29
2 -0.34
3 0.63

> <PUBCHEM_EFFECTIVE_ROTOR_COUNT>
0

> <PUBCHEM_PHARMACOPHORE_FEATURES>
0

> <PUBCHEM_HEAVY_ATOM_COUNT>
4

> <PUBCHEM_ATOM_DEF_STEREO_COUNT>
0

> <PUBCHEM_ATOM_UDEF_STEREO_COUNT>
1

> <PUBCHEM_BOND_DEF_STEREO_COUNT>
0

> <PUBCHEM_BOND_UDEF_STEREO_COUNT>
0

> <PUBCHEM_ISOTOPIC_ATOM_COUNT>
0

> <PUBCHEM_COMPONENT_COUNT>
1

> <PUBCHEM_CACTVS_TAUTO_COUNT>
1

> <PUBCHEM_CONFORMER_ID>
00003C0D00000001

> <PUBCHEM_MMFF94_ENERGY>
0.1862

> <PUBCHEM_FEATURE_SELFOVERLAP>
0

> <PUBCHEM_SHAPE_FINGERPRINT>
139733 1 8860927383345004603
20096714 4 18263361554472365461
21015797 1 8718244824444332032
5943 1 11812279534377750072

> <PUBCHEM_SHAPE_MULTIPOLES>
76.91
1.65
1.15
0.65
0.54
0.24
0.02
-0.51
-0.1
-0.26
-0.09
0.02
-0.03
0

> <PUBCHEM_SHAPE_SELFOVERLAP>
120.461

> <PUBCHEM_SHAPE_VOLUME>
56.3

> <PUBCHEM_COORDINATE_TYPE>
2
5
10

$$$$
