74321
  -OEChem-07262316203D

  9  8  0     0  0  0  0  0  0999 V2000
   -0.9569   -1.2100   -0.3568 F   0  0  0  0  0  0  0  0  0  0  0  0
   -2.2384    0.4936    0.0872 F   0  0  0  0  0  0  0  0  0  0  0  0
    1.3864   -1.0872    0.2732 F   0  0  0  0  0  0  0  0  0  0  0  0
    1.6191    0.8170   -0.7842 F   0  0  0  0  0  0  0  0  0  0  0  0
   -0.0850    0.5873    0.6905 O   0  0  0  0  0  0  0  0  0  0  0  0
   -0.9886    0.1434   -0.3061 C   0  0  0  0  0  0  0  0  0  0  0  0
    1.2635    0.2558    0.3963 C   0  0  0  0  0  0  0  0  0  0  0  0
   -0.7787    0.5721   -1.2908 H   0  0  0  0  0  0  0  0  0  0  0  0
    1.9254    0.6149    1.1884 H   0  0  0  0  0  0  0  0  0  0  0  0
  1  6  1  0  0  0  0
  2  6  1  0  0  0  0
  3  7  1  0  0  0  0
  4  7  1  0  0  0  0
  5  6  1  0  0  0  0
  5  7  1  0  0  0  0
  6  8  1  0  0  0  0
  7  9  1  0  0  0  0
M  END
> <PUBCHEM_COMPOUND_CID>
74321

> <PUBCHEM_CONFORMER_RMSD>
0.4

> <PUBCHEM_CONFORMER_DIVERSEORDER>
1
5
6
2
7
4
9
8
3

> <PUBCHEM_MMFF94_PARTIAL_CHARGES>
7
1 -0.34
2 -0.34
3 -0.34
4 -0.34
5 -0.56
6 0.96
7 0.96

> <PUBCHEM_EFFECTIVE_ROTOR_COUNT>
2

> <PUBCHEM_PHARMACOPHORE_FEATURES>
1
1 5 acceptor

> <PUBCHEM_HEAVY_ATOM_COUNT>
7

> <PUBCHEM_ATOM_DEF_STEREO_COUNT>
0

> <PUBCHEM_ATOM_UDEF_STEREO_COUNT>
0

> <PUBCHEM_BOND_DEF_STEREO_COUNT>
0

> <PUBCHEM_BOND_UDEF_STEREO_COUNT>
0

> <PUBCHEM_ISOTOPIC_ATOM_COUNT>
0

> <PUBCHEM_COMPONENT_COUNT>
1

> <PUBCHEM_CACTVS_TAUTO_COUNT>
1

> <PUBCHEM_CONFORMER_ID>
0001225100000001

> <PUBCHEM_MMFF94_ENERGY>
5.642

> <PUBCHEM_FEATURE_SELFOVERLAP>
5.074

> <PUBCHEM_SHAPE_FINGERPRINT>
139733 1 11963387423143308288
20096714 4 18260831518081847652
21040471 1 18343297059249983273
24536 1 17896023477086200451
29004967 10 17677049040681960552
5460574 1 8286200569563477049
5943 1 13559035823391010064

> <PUBCHEM_SHAPE_MULTIPOLES>
109.09
2.29
1.02
0.73
0.51
0.28
-0.03
-0.22
-0.12
-0.08
-0.04
-0.15
-0.1
-0.22

> <PUBCHEM_SHAPE_SELFOVERLAP>
203.114

> <PUBCHEM_SHAPE_VOLUME>
68

> <PUBCHEM_COORDINATE_TYPE>
2
5
10

$$$$
