542765
  -OEChem-07262316193D

  7  7  0     1  0  0  0  0  0999 V2000
    0.8987   -1.3816   -0.6614 F   0  0  0  0  0  0  0  0  0  0  0  0
   -0.8973   -1.3819    0.6616 F   0  0  0  0  0  0  0  0  0  0  0  0
   -1.7144    0.9776   -0.2066 F   0  0  0  0  0  0  0  0  0  0  0  0
    1.7133    0.9795    0.2066 F   0  0  0  0  0  0  0  0  0  0  0  0
   -0.4210    0.6914   -0.5704 N   0  0  1  0  0  0  0  0  0  0  0  0
    0.4204    0.6918    0.5703 N   0  0  1  0  0  0  0  0  0  0  0  0
    0.0005   -0.5768   -0.0001 C   0  0  0  0  0  0  0  0  0  0  0  0
  1  7  1  0  0  0  0
  2  7  1  0  0  0  0
  3  5  1  0  0  0  0
  4  6  1  0  0  0  0
  5  6  1  0  0  0  0
  5  7  1  0  0  0  0
  6  7  1  0  0  0  0
M  END
> <PUBCHEM_COMPOUND_CID>
542765

> <PUBCHEM_CONFORMER_RMSD>
0.4

> <PUBCHEM_CONFORMER_DIVERSEORDER>
1
3
2

> <PUBCHEM_MMFF94_PARTIAL_CHARGES>
7
1 -0.23
2 -0.23
3 -0.06
4 -0.06
5 -0.09
6 -0.09
7 0.78

> <PUBCHEM_EFFECTIVE_ROTOR_COUNT>
0.6

> <PUBCHEM_PHARMACOPHORE_FEATURES>
0

> <PUBCHEM_HEAVY_ATOM_COUNT>
7

> <PUBCHEM_ATOM_DEF_STEREO_COUNT>
0

> <PUBCHEM_ATOM_UDEF_STEREO_COUNT>
0

> <PUBCHEM_BOND_DEF_STEREO_COUNT>
0

> <PUBCHEM_BOND_UDEF_STEREO_COUNT>
0

> <PUBCHEM_ISOTOPIC_ATOM_COUNT>
0

> <PUBCHEM_COMPONENT_COUNT>
1

> <PUBCHEM_CACTVS_TAUTO_COUNT>
1

> <PUBCHEM_CONFORMER_ID>
0008482D00000001

> <PUBCHEM_MMFF94_ENERGY>
6.1087

> <PUBCHEM_FEATURE_SELFOVERLAP>
0

> <PUBCHEM_SHAPE_FINGERPRINT>
16714656 1 17690011441054931396
21015797 1 9222681066816463381
21040471 1 18335977605922576909
29004967 10 17555727703575984567
5943 1 15502656060883342563

> <PUBCHEM_SHAPE_MULTIPOLES>
105
1.51
1.44
0.72
0
0.36
0
-0.49
0
0
0
0
0.09
0.34

> <PUBCHEM_SHAPE_SELFOVERLAP>
201.385

> <PUBCHEM_SHAPE_VOLUME>
62.3

> <PUBCHEM_COORDINATE_TYPE>
2
5
10

$$$$
