15758408
  -OEChem-07262316203D

  7  6  0     0  0  0  0  0  0999 V2000
    2.3454   -0.6988    0.0001 F   0  0  0  0  0  0  0  0  0  0  0  0
   -2.3454   -0.6989   -0.0002 F   0  0  0  0  0  0  0  0  0  0  0  0
   -0.0001   -0.7787    0.0000 O   0  0  0  0  0  0  0  0  0  0  0  0
    1.1991    1.1555   -0.0002 O   0  0  0  0  0  0  0  0  0  0  0  0
   -1.1990    1.1556    0.0001 O   0  0  0  0  0  0  0  0  0  0  0  0
    1.1628   -0.0674   -0.0001 C   0  0  0  0  0  0  0  0  0  0  0  0
   -1.1629   -0.0673    0.0002 C   0  0  0  0  0  0  0  0  0  0  0  0
  1  6  1  0  0  0  0
  2  7  1  0  0  0  0
  3  6  1  0  0  0  0
  3  7  1  0  0  0  0
  4  6  2  0  0  0  0
  5  7  2  0  0  0  0
M  END
> <PUBCHEM_COMPOUND_CID>
15758408

> <PUBCHEM_CONFORMER_RMSD>
0.4

> <PUBCHEM_CONFORMER_DIVERSEORDER>
1
4
5
6
2
3

> <PUBCHEM_MMFF94_PARTIAL_CHARGES>
7
1 -0.22
2 -0.22
3 -0.3
4 -0.57
5 -0.57
6 0.94
7 0.94

> <PUBCHEM_EFFECTIVE_ROTOR_COUNT>
2

> <PUBCHEM_PHARMACOPHORE_FEATURES>
2
1 4 acceptor
1 5 acceptor

> <PUBCHEM_HEAVY_ATOM_COUNT>
7

> <PUBCHEM_ATOM_DEF_STEREO_COUNT>
0

> <PUBCHEM_ATOM_UDEF_STEREO_COUNT>
0

> <PUBCHEM_BOND_DEF_STEREO_COUNT>
0

> <PUBCHEM_BOND_UDEF_STEREO_COUNT>
0

> <PUBCHEM_ISOTOPIC_ATOM_COUNT>
0

> <PUBCHEM_COMPONENT_COUNT>
1

> <PUBCHEM_CACTVS_TAUTO_COUNT>
1

> <PUBCHEM_CONFORMER_ID>
00F0744800000001

> <PUBCHEM_MMFF94_ENERGY>
10.4348

> <PUBCHEM_FEATURE_SELFOVERLAP>
10.181

> <PUBCHEM_SHAPE_FINGERPRINT>
139733 1 9223230745315665281
20096714 4 18410293601149304632
21040471 1 18266460004045898912
23552423 10 18044667403586886414
24536 1 18338503201269100097
29004967 10 18413112757605617570
5460574 1 9295289443381838306

> <PUBCHEM_SHAPE_MULTIPOLES>
111.9
2.71
1.08
0.53
0
0.25
0
-0.53
0
0
0
0
0
0

> <PUBCHEM_SHAPE_SELFOVERLAP>
216.088

> <PUBCHEM_SHAPE_VOLUME>
67.4

> <PUBCHEM_COORDINATE_TYPE>
2
5
10

$$$$
