13751620
  -OEChem-07262316193D

  5  4  0     0  0  0  0  0  0999 V2000
    1.6324    1.1036    0.0000 Cl  0  0  0  0  0  0  0  0  0  0  0  0
   -1.6328    1.1031    0.0006 Cl  0  0  0  0  0  0  0  0  0  0  0  0
    0.0000   -0.1253    0.0000 Si  0  0  0  0  0  0  0  0  0  0  0  0
    0.0006   -1.0412    1.3070 F   0  0  0  0  0  0  0  0  0  0  0  0
   -0.0002   -1.0402   -1.3076 F   0  0  0  0  0  0  0  0  0  0  0  0
  1  3  1  0  0  0  0
  2  3  1  0  0  0  0
  3  4  1  0  0  0  0
  3  5  1  0  0  0  0
M  END
> <PUBCHEM_COMPOUND_CID>
13751620

> <PUBCHEM_CONFORMER_RMSD>
0.4

> <PUBCHEM_CONFORMER_DIVERSEORDER>
1

> <PUBCHEM_MMFF94_PARTIAL_CHARGES>
5
1 -0.37
2 -0.37
3 1.56
4 -0.41
5 -0.41

> <PUBCHEM_EFFECTIVE_ROTOR_COUNT>
0

> <PUBCHEM_PHARMACOPHORE_FEATURES>
0

> <PUBCHEM_HEAVY_ATOM_COUNT>
5

> <PUBCHEM_ATOM_DEF_STEREO_COUNT>
0

> <PUBCHEM_ATOM_UDEF_STEREO_COUNT>
0

> <PUBCHEM_BOND_DEF_STEREO_COUNT>
0

> <PUBCHEM_BOND_UDEF_STEREO_COUNT>
0

> <PUBCHEM_ISOTOPIC_ATOM_COUNT>
0

> <PUBCHEM_COMPONENT_COUNT>
1

> <PUBCHEM_CACTVS_TAUTO_COUNT>
1

> <PUBCHEM_CONFORMER_ID>
00D1D54400000001

> <PUBCHEM_MMFF94_ENERGY>
0.2139

> <PUBCHEM_FEATURE_SELFOVERLAP>
0

> <PUBCHEM_SHAPE_FINGERPRINT>
16714656 1 17843397642345863613
20096714 4 18410851040644140256
5943 1 11794130050519937731

> <PUBCHEM_SHAPE_MULTIPOLES>
110.3
1.79
1.45
1.12
0
0.01
0
1.06
0
0
0
0
-0.47
0

> <PUBCHEM_SHAPE_SELFOVERLAP>
170.471

> <PUBCHEM_SHAPE_VOLUME>
79.7

> <PUBCHEM_COORDINATE_TYPE>
2
5
10

$$$$
