6432206
  -OEChem-07262316193D

  9  8  0     0  0  0  0  0  0999 V2000
   -1.3687   -0.6297    0.0000 F   0  0  0  0  0  0  0  0  0  0  0  0
    1.4993   -0.5575    0.0000 C   0  0  0  0  0  0  0  0  0  0  0  0
    0.6001    0.6322    0.0000 C   0  0  0  0  0  0  0  0  0  0  0  0
   -0.7307    0.5550    0.0000 C   0  0  0  0  0  0  0  0  0  0  0  0
    0.9458   -1.5016    0.0000 H   0  0  0  0  0  0  0  0  0  0  0  0
    2.1403   -0.5393   -0.8868 H   0  0  0  0  0  0  0  0  0  0  0  0
    2.1404   -0.5393    0.8867 H   0  0  0  0  0  0  0  0  0  0  0  0
    1.0682    1.6123   -0.0001 H   0  0  0  0  0  0  0  0  0  0  0  0
   -1.4236    1.3824    0.0000 H   0  0  0  0  0  0  0  0  0  0  0  0
  1  4  1  0  0  0  0
  2  3  1  0  0  0  0
  2  5  1  0  0  0  0
  2  6  1  0  0  0  0
  2  7  1  0  0  0  0
  3  4  2  0  0  0  0
  3  8  1  0  0  0  0
  4  9  1  0  0  0  0
M  END
> <PUBCHEM_COMPOUND_CID>
6432206

> <PUBCHEM_CONFORMER_RMSD>
0.4

> <PUBCHEM_CONFORMER_DIVERSEORDER>
1

> <PUBCHEM_MMFF94_PARTIAL_CHARGES>
5
1 -0.15
2 0.14
3 -0.29
8 0.15
9 0.15

> <PUBCHEM_EFFECTIVE_ROTOR_COUNT>
0

> <PUBCHEM_PHARMACOPHORE_FEATURES>
1
1 2 hydrophobe

> <PUBCHEM_HEAVY_ATOM_COUNT>
4

> <PUBCHEM_ATOM_DEF_STEREO_COUNT>
0

> <PUBCHEM_ATOM_UDEF_STEREO_COUNT>
0

> <PUBCHEM_BOND_DEF_STEREO_COUNT>
1

> <PUBCHEM_BOND_UDEF_STEREO_COUNT>
0

> <PUBCHEM_ISOTOPIC_ATOM_COUNT>
0

> <PUBCHEM_COMPONENT_COUNT>
1

> <PUBCHEM_CACTVS_TAUTO_COUNT>
1

> <PUBCHEM_CONFORMER_ID>
006225CE00000001

> <PUBCHEM_MMFF94_ENERGY>
-0.2311

> <PUBCHEM_FEATURE_SELFOVERLAP>
5.074

> <PUBCHEM_SHAPE_FINGERPRINT>
139733 1 17906453225344276197
20096714 4 9295289447576585334
21015797 1 18338520724783192512
5943 1 14567547595069931008

> <PUBCHEM_SHAPE_MULTIPOLES>
75.04
1.78
0.92
0.59
0.22
0.02
0
-0.42
0
-0.05
0
0.04
0.02
0

> <PUBCHEM_SHAPE_SELFOVERLAP>
126.436

> <PUBCHEM_SHAPE_VOLUME>
51.1

> <PUBCHEM_COORDINATE_TYPE>
2
5
10

$$$$
