13550690
  -OEChem-07262316193D

  7  7  0     0  0  0  0  0  0999 V2000
   -1.9075    0.0004    0.6819 F   0  0  0  0  0  0  0  0  0  0  0  0
   -0.9896   -0.0011   -1.3507 F   0  0  0  0  0  0  0  0  0  0  0  0
    1.3640    1.3320   -0.1834 F   0  0  0  0  0  0  0  0  0  0  0  0
    1.3650   -1.3314   -0.1823 F   0  0  0  0  0  0  0  0  0  0  0  0
   -0.7175   -0.0005   -0.0043 C   0  0  0  0  0  0  0  0  0  0  0  0
    0.4425    0.6509    0.5190 C   0  0  0  0  0  0  0  0  0  0  0  0
    0.4431   -0.6503    0.5197 C   0  0  0  0  0  0  0  0  0  0  0  0
  1  5  1  0  0  0  0
  2  5  1  0  0  0  0
  3  6  1  0  0  0  0
  4  7  1  0  0  0  0
  5  6  1  0  0  0  0
  5  7  1  0  0  0  0
  6  7  2  0  0  0  0
M  END
> <PUBCHEM_COMPOUND_CID>
13550690

> <PUBCHEM_CONFORMER_RMSD>
0.4

> <PUBCHEM_CONFORMER_DIVERSEORDER>
1

> <PUBCHEM_MMFF94_PARTIAL_CHARGES>
7
1 -0.23
2 -0.23
3 -0.15
4 -0.15
5 0.54
6 0.11
7 0.11

> <PUBCHEM_EFFECTIVE_ROTOR_COUNT>
0.2

> <PUBCHEM_PHARMACOPHORE_FEATURES>
0

> <PUBCHEM_HEAVY_ATOM_COUNT>
7

> <PUBCHEM_ATOM_DEF_STEREO_COUNT>
0

> <PUBCHEM_ATOM_UDEF_STEREO_COUNT>
0

> <PUBCHEM_BOND_DEF_STEREO_COUNT>
0

> <PUBCHEM_BOND_UDEF_STEREO_COUNT>
0

> <PUBCHEM_ISOTOPIC_ATOM_COUNT>
0

> <PUBCHEM_COMPONENT_COUNT>
1

> <PUBCHEM_CACTVS_TAUTO_COUNT>
1

> <PUBCHEM_CONFORMER_ID>
00CEC46200000001

> <PUBCHEM_MMFF94_ENERGY>
32.0928

> <PUBCHEM_FEATURE_SELFOVERLAP>
0

> <PUBCHEM_SHAPE_FINGERPRINT>
20096714 4 18198912585172457513
21040471 1 18123755510895042856
29004967 10 18265899064163708610
5943 1 15877033443706854689

> <PUBCHEM_SHAPE_MULTIPOLES>
114.96
1.67
1.11
0.91
0.38
0
0.17
0
-0.03
-0.62
0.03
0.27
0
0

> <PUBCHEM_SHAPE_SELFOVERLAP>
236.172

> <PUBCHEM_SHAPE_VOLUME>
67.3

> <PUBCHEM_COORDINATE_TYPE>
2
5
10

$$$$
