533999
  -OEChem-07262316193D

  7  6  0     0  0  0  0  0  0999 V2000
    1.4310   -0.2226    1.2431 F   0  0  0  0  0  0  0  0  0  0  0  0
    1.4315   -0.9654   -0.8140 F   0  0  0  0  0  0  0  0  0  0  0  0
    1.4319    1.1877   -0.4288 F   0  0  0  0  0  0  0  0  0  0  0  0
   -3.0399   -0.0001    0.0001 F   0  0  0  0  0  0  0  0  0  0  0  0
    0.9497    0.0000    0.0000 C   0  0  0  0  0  0  0  0  0  0  0  0
   -0.5019    0.0003   -0.0001 C   0  0  0  0  0  0  0  0  0  0  0  0
   -1.7022    0.0001   -0.0002 C   0  0  0  0  0  0  0  0  0  0  0  0
  1  5  1  0  0  0  0
  2  5  1  0  0  0  0
  3  5  1  0  0  0  0
  4  7  1  0  0  0  0
  5  6  1  0  0  0  0
  6  7  3  0  0  0  0
M  END
> <PUBCHEM_COMPOUND_CID>
533999

> <PUBCHEM_CONFORMER_RMSD>
0.4

> <PUBCHEM_CONFORMER_DIVERSEORDER>
1

> <PUBCHEM_MMFF94_PARTIAL_CHARGES>
7
1 -0.34
2 -0.34
3 -0.34
4 -0.12
5 1.22
6 -0.2
7 0.12

> <PUBCHEM_EFFECTIVE_ROTOR_COUNT>
0

> <PUBCHEM_PHARMACOPHORE_FEATURES>
0

> <PUBCHEM_HEAVY_ATOM_COUNT>
7

> <PUBCHEM_ATOM_DEF_STEREO_COUNT>
0

> <PUBCHEM_ATOM_UDEF_STEREO_COUNT>
0

> <PUBCHEM_BOND_DEF_STEREO_COUNT>
0

> <PUBCHEM_BOND_UDEF_STEREO_COUNT>
0

> <PUBCHEM_ISOTOPIC_ATOM_COUNT>
0

> <PUBCHEM_COMPONENT_COUNT>
1

> <PUBCHEM_CACTVS_TAUTO_COUNT>
1

> <PUBCHEM_CONFORMER_ID>
000825EF00000001

> <PUBCHEM_MMFF94_ENERGY>
0.7096

> <PUBCHEM_FEATURE_SELFOVERLAP>
0

> <PUBCHEM_SHAPE_FINGERPRINT>
20096714 4 18189057653852132516
24536 1 18341892987259584065
29004967 10 18273217486567172867
5460574 1 10807939262675712341
5943 1 14163176355816721414

> <PUBCHEM_SHAPE_MULTIPOLES>
114.96
3.04
0.82
0.82
2.47
0.17
-0.01
0
0
-0.39
0.01
-0.39
-0.17
0

> <PUBCHEM_SHAPE_SELFOVERLAP>
219.748

> <PUBCHEM_SHAPE_VOLUME>
68.9

> <PUBCHEM_COORDINATE_TYPE>
2
5
10

$$$$
