5463203
  -OEChem-07262316193D

  9  8  0     0  0  0  0  0  0999 V2000
   -1.8228    0.1130    0.0000 F   0  0  0  0  0  0  0  0  0  0  0  0
    1.9003   -0.1145    0.0000 C   0  0  0  0  0  0  0  0  0  0  0  0
    0.4987    0.3950    0.0000 C   0  0  0  0  0  0  0  0  0  0  0  0
   -0.5762   -0.3935    0.0000 C   0  0  0  0  0  0  0  0  0  0  0  0
    1.9423   -1.2085    0.0000 H   0  0  0  0  0  0  0  0  0  0  0  0
    2.4290    0.2474   -0.8870 H   0  0  0  0  0  0  0  0  0  0  0  0
    2.4289    0.2473    0.8872 H   0  0  0  0  0  0  0  0  0  0  0  0
    0.3599    1.4721    0.0000 H   0  0  0  0  0  0  0  0  0  0  0  0
   -0.5896   -1.4729    0.0000 H   0  0  0  0  0  0  0  0  0  0  0  0
  1  4  1  0  0  0  0
  2  3  1  0  0  0  0
  2  5  1  0  0  0  0
  2  6  1  0  0  0  0
  2  7  1  0  0  0  0
  3  4  2  0  0  0  0
  3  8  1  0  0  0  0
  4  9  1  0  0  0  0
M  END
> <PUBCHEM_COMPOUND_CID>
5463203

> <PUBCHEM_CONFORMER_RMSD>
0.4

> <PUBCHEM_CONFORMER_DIVERSEORDER>
1

> <PUBCHEM_MMFF94_PARTIAL_CHARGES>
5
1 -0.15
2 0.14
3 -0.29
8 0.15
9 0.15

> <PUBCHEM_EFFECTIVE_ROTOR_COUNT>
0

> <PUBCHEM_PHARMACOPHORE_FEATURES>
1
1 2 hydrophobe

> <PUBCHEM_HEAVY_ATOM_COUNT>
4

> <PUBCHEM_ATOM_DEF_STEREO_COUNT>
0

> <PUBCHEM_ATOM_UDEF_STEREO_COUNT>
0

> <PUBCHEM_BOND_DEF_STEREO_COUNT>
1

> <PUBCHEM_BOND_UDEF_STEREO_COUNT>
0

> <PUBCHEM_ISOTOPIC_ATOM_COUNT>
0

> <PUBCHEM_COMPONENT_COUNT>
1

> <PUBCHEM_CACTVS_TAUTO_COUNT>
1

> <PUBCHEM_CONFORMER_ID>
00535CA300000001

> <PUBCHEM_MMFF94_ENERGY>
-0.4474

> <PUBCHEM_FEATURE_SELFOVERLAP>
5.074

> <PUBCHEM_SHAPE_FINGERPRINT>
139733 1 18410856563966444359
20096714 4 8718818795574076110
21015797 1 18194682806947792934
5460574 1 18410856551234477798

> <PUBCHEM_SHAPE_MULTIPOLES>
75.04
2.3
0.68
0.59
0.04
0.01
0
0.05
0
0.04
0
0.06
0
0

> <PUBCHEM_SHAPE_SELFOVERLAP>
125.803

> <PUBCHEM_SHAPE_VOLUME>
51.4

> <PUBCHEM_COORDINATE_TYPE>
2
5
10

$$$$
