23234846
  -OEChem-07262316193D

 11 11  0     0  0  0  0  0  0999 V2000
   -1.6747   -1.0441    1.1019 F   0  0  0  0  0  0  0  0  0  0  0  0
   -0.9526   -1.4985   -0.9149 F   0  0  0  0  0  0  0  0  0  0  0  0
   -1.6745    1.0440   -1.1023 F   0  0  0  0  0  0  0  0  0  0  0  0
   -0.9533    1.4984    0.9148 F   0  0  0  0  0  0  0  0  0  0  0  0
    2.1464   -0.6129   -0.9100 F   0  0  0  0  0  0  0  0  0  0  0  0
    2.1474    0.6126    0.9095 F   0  0  0  0  0  0  0  0  0  0  0  0
    0.5566   -0.9810    0.6627 O   0  0  0  0  0  0  0  0  0  0  0  0
    0.5567    0.9815   -0.6620 O   0  0  0  0  0  0  0  0  0  0  0  0
   -0.7532   -0.7260    0.1758 C   0  0  0  0  0  0  0  0  0  0  0  0
   -0.7532    0.7260   -0.1757 C   0  0  0  0  0  0  0  0  0  0  0  0
    1.3544    0.0001    0.0001 C   0  0  0  0  0  0  0  0  0  0  0  0
  1  9  1  0  0  0  0
  2  9  1  0  0  0  0
  3 10  1  0  0  0  0
  4 10  1  0  0  0  0
  5 11  1  0  0  0  0
  6 11  1  0  0  0  0
  7  9  1  0  0  0  0
  7 11  1  0  0  0  0
  8 10  1  0  0  0  0
  8 11  1  0  0  0  0
  9 10  1  0  0  0  0
M  END
> <PUBCHEM_COMPOUND_CID>
23234846

> <PUBCHEM_CONFORMER_RMSD>
0.4

> <PUBCHEM_CONFORMER_DIVERSEORDER>
1
2

> <PUBCHEM_MMFF94_PARTIAL_CHARGES>
11
1 -0.34
10 0.96
11 1.24
2 -0.34
3 -0.34
4 -0.34
5 -0.34
6 -0.34
7 -0.56
8 -0.56
9 0.96

> <PUBCHEM_EFFECTIVE_ROTOR_COUNT>
1

> <PUBCHEM_PHARMACOPHORE_FEATURES>
3
1 7 acceptor
1 8 acceptor
5 7 8 9 10 11 rings

> <PUBCHEM_HEAVY_ATOM_COUNT>
11

> <PUBCHEM_ATOM_DEF_STEREO_COUNT>
0

> <PUBCHEM_ATOM_UDEF_STEREO_COUNT>
0

> <PUBCHEM_BOND_DEF_STEREO_COUNT>
0

> <PUBCHEM_BOND_UDEF_STEREO_COUNT>
0

> <PUBCHEM_ISOTOPIC_ATOM_COUNT>
0

> <PUBCHEM_COMPONENT_COUNT>
1

> <PUBCHEM_CACTVS_TAUTO_COUNT>
1

> <PUBCHEM_CONFORMER_ID>
0162891E00000001

> <PUBCHEM_MMFF94_ENERGY>
6.2427

> <PUBCHEM_FEATURE_SELFOVERLAP>
15.26

> <PUBCHEM_SHAPE_FINGERPRINT>
12423570 1 13670288691692081505
13024252 1 15864652625119348158
16945 1 18040997341067943939
21040471 1 17897155828007690860
24536 1 18342176661307217940
29004967 10 17244147342577095105
369184 2 18337090354934711664
5084963 1 17972034738843984229

> <PUBCHEM_SHAPE_MULTIPOLES>
170.99
2.23
1.39
1.05
0.89
0
0
0
0
-0.53
0
-0.1
0
0.22

> <PUBCHEM_SHAPE_SELFOVERLAP>
364.392

> <PUBCHEM_SHAPE_VOLUME>
96.7

> <PUBCHEM_COORDINATE_TYPE>
2
5
10

$$$$
