137466
  -OEChem-07262316193D

  9  8  0     0  0  0  0  0  0999 V2000
    1.3842    0.2265    0.0000 Si  0  0  0  0  0  0  0  0  0  0  0  0
   -0.1063   -0.5146    0.0000 O   0  0  0  0  0  0  0  0  0  0  0  0
   -1.2778    0.2881    0.0000 C   0  0  0  0  0  0  0  0  0  0  0  0
    1.5303    1.0747   -1.2106 H   0  0  0  0  0  0  0  0  0  0  0  0
    2.4549   -0.8023   -0.0001 H   0  0  0  0  0  0  0  0  0  0  0  0
    1.5303    1.0748    1.2106 H   0  0  0  0  0  0  0  0  0  0  0  0
   -1.3292    0.9129    0.8989 H   0  0  0  0  0  0  0  0  0  0  0  0
   -2.1468   -0.3773    0.0001 H   0  0  0  0  0  0  0  0  0  0  0  0
   -1.3293    0.9127   -0.8989 H   0  0  0  0  0  0  0  0  0  0  0  0
  1  2  1  0  0  0  0
  1  4  1  0  0  0  0
  1  5  1  0  0  0  0
  1  6  1  0  0  0  0
  2  3  1  0  0  0  0
  3  7  1  0  0  0  0
  3  8  1  0  0  0  0
  3  9  1  0  0  0  0
M  END
> <PUBCHEM_COMPOUND_CID>
137466

> <PUBCHEM_CONFORMER_RMSD>
0.4

> <PUBCHEM_CONFORMER_DIVERSEORDER>
1

> <PUBCHEM_MMFF94_PARTIAL_CHARGES>
6
1 0.9
2 -0.58
3 0.28
4 -0.2
5 -0.2
6 -0.2

> <PUBCHEM_EFFECTIVE_ROTOR_COUNT>
0

> <PUBCHEM_PHARMACOPHORE_FEATURES>
0

> <PUBCHEM_HEAVY_ATOM_COUNT>
3

> <PUBCHEM_ATOM_DEF_STEREO_COUNT>
0

> <PUBCHEM_ATOM_UDEF_STEREO_COUNT>
0

> <PUBCHEM_BOND_DEF_STEREO_COUNT>
0

> <PUBCHEM_BOND_UDEF_STEREO_COUNT>
0

> <PUBCHEM_ISOTOPIC_ATOM_COUNT>
0

> <PUBCHEM_COMPONENT_COUNT>
1

> <PUBCHEM_CACTVS_TAUTO_COUNT>
1

> <PUBCHEM_CONFORMER_ID>
000218FA00000001

> <PUBCHEM_MMFF94_ENERGY>
3.69

> <PUBCHEM_FEATURE_SELFOVERLAP>
0

> <PUBCHEM_SHAPE_FINGERPRINT>
139733 1 18410856572693593956
20096714 4 9007048080856809674
21015797 1 18192149515067211620
5460574 1 18410856551165938500

> <PUBCHEM_SHAPE_MULTIPOLES>
74.08
2.1
0.85
0.76
0.05
0.06
0
0.24
0
-0.13
0
-0.19
0.03
0

> <PUBCHEM_SHAPE_SELFOVERLAP>
105.395

> <PUBCHEM_SHAPE_VOLUME>
58.9

> <PUBCHEM_COORDINATE_TYPE>
2
5
10

$$$$
