10986206
  -OEChem-07262316193D

  6  5  0     0  0  0  0  0  0999 V2000
   -2.1522    0.0511    0.0002 Cl  0  0  0  0  0  0  0  0  0  0  0  0
    1.5302   -0.7825   -0.0026 F   0  0  0  0  0  0  0  0  0  0  0  0
    0.4576    0.7822   -1.0984 F   0  0  0  0  0  0  0  0  0  0  0  0
    0.4579    0.7749    1.1034 F   0  0  0  0  0  0  0  0  0  0  0  0
   -0.7224   -0.8242   -0.0025 O   0  0  0  0  0  0  0  0  0  0  0  0
    0.4289   -0.0015   -0.0001 C   0  0  0  0  0  0  0  0  0  0  0  0
  1  5  1  0  0  0  0
  2  6  1  0  0  0  0
  3  6  1  0  0  0  0
  4  6  1  0  0  0  0
  5  6  1  0  0  0  0
M  END
> <PUBCHEM_COMPOUND_CID>
10986206

> <PUBCHEM_CONFORMER_RMSD>
0.4

> <PUBCHEM_CONFORMER_DIVERSEORDER>
1

> <PUBCHEM_MMFF94_PARTIAL_CHARGES>
6
1 -0.06
2 -0.34
3 -0.34
4 -0.34
5 -0.22
6 1.3

> <PUBCHEM_EFFECTIVE_ROTOR_COUNT>
1

> <PUBCHEM_PHARMACOPHORE_FEATURES>
0

> <PUBCHEM_HEAVY_ATOM_COUNT>
6

> <PUBCHEM_ATOM_DEF_STEREO_COUNT>
0

> <PUBCHEM_ATOM_UDEF_STEREO_COUNT>
0

> <PUBCHEM_BOND_DEF_STEREO_COUNT>
0

> <PUBCHEM_BOND_UDEF_STEREO_COUNT>
0

> <PUBCHEM_ISOTOPIC_ATOM_COUNT>
0

> <PUBCHEM_COMPONENT_COUNT>
1

> <PUBCHEM_CACTVS_TAUTO_COUNT>
1

> <PUBCHEM_CONFORMER_ID>
00A7A2DE00000001

> <PUBCHEM_MMFF94_ENERGY>
3.3555

> <PUBCHEM_FEATURE_SELFOVERLAP>
0

> <PUBCHEM_SHAPE_FINGERPRINT>
139733 1 9294993670253348903
20096714 4 17531817985858903517
21015797 1 8574164773601387234
24536 1 17969495090675659295
29004967 10 17604158038178459746
5943 1 11994782848224686016

> <PUBCHEM_SHAPE_MULTIPOLES>
97.66
2.07
0.89
0.87
1.2
0.02
0
0.21
0
-0.12
0
-0.14
-0.26
0

> <PUBCHEM_SHAPE_SELFOVERLAP>
172.059

> <PUBCHEM_SHAPE_VOLUME>
65.7

> <PUBCHEM_COORDINATE_TYPE>
2
5
10

$$$$
