23234680
  -OEChem-07262316203D

 12 11  0     0  0  0  0  0  0999 V2000
   -1.8556   -2.2235   -0.1456 Cl  0  0  0  0  0  0  0  0  0  0  0  0
   -0.2026   -0.7221    1.4962 F   0  0  0  0  0  0  0  0  0  0  0  0
   -0.7916    1.3471   -1.3106 F   0  0  0  0  0  0  0  0  0  0  0  0
   -2.2118    0.6684    0.1927 F   0  0  0  0  0  0  0  0  0  0  0  0
   -0.5212    1.9168    0.7761 F   0  0  0  0  0  0  0  0  0  0  0  0
    1.8997    0.8658    0.7456 F   0  0  0  0  0  0  0  0  0  0  0  0
    2.1269   -1.2194    0.1461 F   0  0  0  0  0  0  0  0  0  0  0  0
    1.6124    0.2910   -1.3387 F   0  0  0  0  0  0  0  0  0  0  0  0
   -0.4889   -1.3996   -0.6594 O   0  0  0  0  0  0  0  0  0  0  0  0
   -0.0693   -0.3362    0.1970 C   0  0  0  0  0  0  0  0  0  0  0  0
   -0.9021    0.9088   -0.0383 C   0  0  0  0  0  0  0  0  0  0  0  0
    1.4043   -0.0972   -0.0610 C   0  0  0  0  0  0  0  0  0  0  0  0
  1  9  1  0  0  0  0
  2 10  1  0  0  0  0
  3 11  1  0  0  0  0
  4 11  1  0  0  0  0
  5 11  1  0  0  0  0
  6 12  1  0  0  0  0
  7 12  1  0  0  0  0
  8 12  1  0  0  0  0
  9 10  1  0  0  0  0
 10 11  1  0  0  0  0
 10 12  1  0  0  0  0
M  END
> <PUBCHEM_COMPOUND_CID>
23234680

> <PUBCHEM_CONFORMER_RMSD>
0.6

> <PUBCHEM_CONFORMER_DIVERSEORDER>
1
2

> <PUBCHEM_MMFF94_PARTIAL_CHARGES>
12
1 -0.06
10 0.62
11 1.02
12 1.02
2 -0.34
3 -0.34
4 -0.34
5 -0.34
6 -0.34
7 -0.34
8 -0.34
9 -0.22

> <PUBCHEM_EFFECTIVE_ROTOR_COUNT>
3

> <PUBCHEM_PHARMACOPHORE_FEATURES>
0

> <PUBCHEM_HEAVY_ATOM_COUNT>
12

> <PUBCHEM_ATOM_DEF_STEREO_COUNT>
0

> <PUBCHEM_ATOM_UDEF_STEREO_COUNT>
0

> <PUBCHEM_BOND_DEF_STEREO_COUNT>
0

> <PUBCHEM_BOND_UDEF_STEREO_COUNT>
0

> <PUBCHEM_ISOTOPIC_ATOM_COUNT>
0

> <PUBCHEM_COMPONENT_COUNT>
1

> <PUBCHEM_CACTVS_TAUTO_COUNT>
1

> <PUBCHEM_CONFORMER_ID>
0162887800000001

> <PUBCHEM_MMFF94_ENERGY>
7.7577

> <PUBCHEM_FEATURE_SELFOVERLAP>
0

> <PUBCHEM_SHAPE_FINGERPRINT>
12423570 1 12502181754716341758
13024252 1 15864365605324066490
137420 1 12167450544923828528
16945 1 18411422769510350801
21040471 1 18339929186251137284
23552423 10 18260267477423231814
241688 4 18189323731597823425
24536 1 16773810181487437338
29004967 10 17978224194692349907
5084963 1 17897453791406035768

> <PUBCHEM_SHAPE_MULTIPOLES>
192.04
2.45
1.91
1.06
0.36
0.31
0.06
-1.08
0.05
0.59
0
-0.16
0.11
0

> <PUBCHEM_SHAPE_SELFOVERLAP>
383.287

> <PUBCHEM_SHAPE_VOLUME>
116.3

> <PUBCHEM_COORDINATE_TYPE>
2
5
10

$$$$
