5463030
  -OEChem-07262316203D

  6  5  0     0  0  0  0  0  0999 V2000
   -1.6418    0.5424    0.0000 Cl  0  0  0  0  0  0  0  0  0  0  0  0
    1.3299    0.7157    0.0000 F   0  0  0  0  0  0  0  0  0  0  0  0
   -0.5001   -0.7320    0.0000 C   0  0  0  0  0  0  0  0  0  0  0  0
    0.8121   -0.5262    0.0000 C   0  0  0  0  0  0  0  0  0  0  0  0
   -0.9569   -1.7120    0.0000 H   0  0  0  0  0  0  0  0  0  0  0  0
    1.5829   -1.2815    0.0000 H   0  0  0  0  0  0  0  0  0  0  0  0
  1  3  1  0  0  0  0
  2  4  1  0  0  0  0
  3  4  2  0  0  0  0
  3  5  1  0  0  0  0
  4  6  1  0  0  0  0
M  END
> <PUBCHEM_COMPOUND_CID>
5463030

> <PUBCHEM_CONFORMER_RMSD>
0.4

> <PUBCHEM_CONFORMER_DIVERSEORDER>
1

> <PUBCHEM_MMFF94_PARTIAL_CHARGES>
5
1 -0.14
2 -0.15
3 -0.01
5 0.15
6 0.15

> <PUBCHEM_EFFECTIVE_ROTOR_COUNT>
0

> <PUBCHEM_PHARMACOPHORE_FEATURES>
0

> <PUBCHEM_HEAVY_ATOM_COUNT>
4

> <PUBCHEM_ATOM_DEF_STEREO_COUNT>
0

> <PUBCHEM_ATOM_UDEF_STEREO_COUNT>
0

> <PUBCHEM_BOND_DEF_STEREO_COUNT>
1

> <PUBCHEM_BOND_UDEF_STEREO_COUNT>
0

> <PUBCHEM_ISOTOPIC_ATOM_COUNT>
0

> <PUBCHEM_COMPONENT_COUNT>
1

> <PUBCHEM_CACTVS_TAUTO_COUNT>
1

> <PUBCHEM_CONFORMER_ID>
00535BF600000001

> <PUBCHEM_MMFF94_ENERGY>
1.4834

> <PUBCHEM_FEATURE_SELFOVERLAP>
0

> <PUBCHEM_SHAPE_FINGERPRINT>
139733 1 18410856555476697573
21015797 1 18410852127254859974
5943 1 9725673646211201871

> <PUBCHEM_SHAPE_MULTIPOLES>
76.91
1.92
0.97
0.6
0.48
0
0
-0.47
0
-0.09
0
0.05
0.02
0

> <PUBCHEM_SHAPE_SELFOVERLAP>
124.535

> <PUBCHEM_SHAPE_VOLUME>
54

> <PUBCHEM_COORDINATE_TYPE>
2
5
10

$$$$
