5367499
  -OEChem-07262316203D

  6  5  0     0  0  0  0  0  0999 V2000
   -2.0514   -0.1292    0.0000 Cl  0  0  0  0  0  0  0  0  0  0  0  0
    1.8731    0.0848    0.0000 F   0  0  0  0  0  0  0  0  0  0  0  0
   -0.4345    0.4307    0.0000 C   0  0  0  0  0  0  0  0  0  0  0  0
    0.6128   -0.3863    0.0000 C   0  0  0  0  0  0  0  0  0  0  0  0
   -0.3587    1.5093    0.0000 H   0  0  0  0  0  0  0  0  0  0  0  0
    0.5979   -1.4661    0.0000 H   0  0  0  0  0  0  0  0  0  0  0  0
  1  3  1  0  0  0  0
  2  4  1  0  0  0  0
  3  4  2  0  0  0  0
  3  5  1  0  0  0  0
  4  6  1  0  0  0  0
M  END
> <PUBCHEM_COMPOUND_CID>
5367499

> <PUBCHEM_CONFORMER_RMSD>
0.4

> <PUBCHEM_CONFORMER_DIVERSEORDER>
1

> <PUBCHEM_MMFF94_PARTIAL_CHARGES>
5
1 -0.14
2 -0.15
3 -0.01
5 0.15
6 0.15

> <PUBCHEM_EFFECTIVE_ROTOR_COUNT>
0

> <PUBCHEM_PHARMACOPHORE_FEATURES>
0

> <PUBCHEM_HEAVY_ATOM_COUNT>
4

> <PUBCHEM_ATOM_DEF_STEREO_COUNT>
0

> <PUBCHEM_ATOM_UDEF_STEREO_COUNT>
0

> <PUBCHEM_BOND_DEF_STEREO_COUNT>
1

> <PUBCHEM_BOND_UDEF_STEREO_COUNT>
0

> <PUBCHEM_ISOTOPIC_ATOM_COUNT>
0

> <PUBCHEM_COMPONENT_COUNT>
1

> <PUBCHEM_CACTVS_TAUTO_COUNT>
1

> <PUBCHEM_CONFORMER_ID>
0051E6CB00000001

> <PUBCHEM_MMFF94_ENERGY>
1.2074

> <PUBCHEM_FEATURE_SELFOVERLAP>
0

> <PUBCHEM_SHAPE_FINGERPRINT>
139733 1 18410856559645103302
20096714 4 9727342537447897715
21015797 1 18050567648857599845
5460574 1 18410856546907861991

> <PUBCHEM_SHAPE_MULTIPOLES>
76.91
2.54
0.7
0.6
0.24
0
0
0.11
0
0.06
0
0.08
0
0

> <PUBCHEM_SHAPE_SELFOVERLAP>
123.94

> <PUBCHEM_SHAPE_VOLUME>
54.3

> <PUBCHEM_COORDINATE_TYPE>
2
5
10

$$$$
