23233693
  -OEChem-07262316193D

  6  5  0     0  0  0  0  0  0999 V2000
    1.4213   -1.1522   -0.0001 F   0  0  0  0  0  0  0  0  0  0  0  0
    1.3097    1.2122    0.0001 F   0  0  0  0  0  0  0  0  0  0  0  0
   -1.3506    1.0973   -0.0001 F   0  0  0  0  0  0  0  0  0  0  0  0
   -1.3691   -1.0854    0.0001 O   0  0  0  0  0  0  0  0  0  0  0  0
    0.6772   -0.0026    0.0000 N   0  0  0  0  0  0  0  0  0  0  0  0
   -0.6885   -0.0692    0.0000 C   0  0  0  0  0  0  0  0  0  0  0  0
  1  5  1  0  0  0  0
  2  5  1  0  0  0  0
  3  6  1  0  0  0  0
  4  6  2  0  0  0  0
  5  6  1  0  0  0  0
M  END
> <PUBCHEM_COMPOUND_CID>
23233693

> <PUBCHEM_CONFORMER_RMSD>
0.4

> <PUBCHEM_CONFORMER_DIVERSEORDER>
1
2
3

> <PUBCHEM_MMFF94_PARTIAL_CHARGES>
6
1 -0.07
2 -0.07
3 -0.22
4 -0.57
5 0.09
6 0.85

> <PUBCHEM_EFFECTIVE_ROTOR_COUNT>
1

> <PUBCHEM_PHARMACOPHORE_FEATURES>
1
1 4 acceptor

> <PUBCHEM_HEAVY_ATOM_COUNT>
6

> <PUBCHEM_ATOM_DEF_STEREO_COUNT>
0

> <PUBCHEM_ATOM_UDEF_STEREO_COUNT>
0

> <PUBCHEM_BOND_DEF_STEREO_COUNT>
0

> <PUBCHEM_BOND_UDEF_STEREO_COUNT>
0

> <PUBCHEM_ISOTOPIC_ATOM_COUNT>
0

> <PUBCHEM_COMPONENT_COUNT>
1

> <PUBCHEM_CACTVS_TAUTO_COUNT>
1

> <PUBCHEM_CONFORMER_ID>
0162849D00000001

> <PUBCHEM_MMFF94_ENERGY>
0.5227

> <PUBCHEM_FEATURE_SELFOVERLAP>
5.074

> <PUBCHEM_SHAPE_FINGERPRINT>
139733 1 9294987073357681538
16714656 1 17762345716854477574
20096714 4 18337956679665858265
21015797 1 9295025560475010603
29004967 10 17973451193573458955

> <PUBCHEM_SHAPE_MULTIPOLES>
90.81
1.81
1.29
0.51
0.11
0.04
0
-0.05
0
0.09
0
-0.02
-0.01
0

> <PUBCHEM_SHAPE_SELFOVERLAP>
165.565

> <PUBCHEM_SHAPE_VOLUME>
57.5

> <PUBCHEM_COORDINATE_TYPE>
2
5
10

$$$$
