137585
  -OEChem-07262316193D

  5  4  0     0  0  0  0  0  0999 V2000
    1.8690   -0.0006    0.0004 S   0  0  0  0  0  0  0  0  0  0  0  0
   -0.0704   -0.0001    0.0000 P   0  0  0  0  0  0  0  0  0  0  0  0
   -0.5994    0.9598    1.1325 F   0  0  0  0  0  0  0  0  0  0  0  0
   -0.5988    0.5014   -1.3974 F   0  0  0  0  0  0  0  0  0  0  0  0
   -0.6003   -1.4606    0.2645 F   0  0  0  0  0  0  0  0  0  0  0  0
  1  2  2  0  0  0  0
  2  3  1  0  0  0  0
  2  4  1  0  0  0  0
  2  5  1  0  0  0  0
M  END
> <PUBCHEM_COMPOUND_CID>
137585

> <PUBCHEM_CONFORMER_RMSD>
0.4

> <PUBCHEM_CONFORMER_DIVERSEORDER>
1

> <PUBCHEM_MMFF94_PARTIAL_CHARGES>
5
1 -0.68
2 1.66
3 -0.33
4 -0.33
5 -0.33

> <PUBCHEM_EFFECTIVE_ROTOR_COUNT>
0

> <PUBCHEM_PHARMACOPHORE_FEATURES>
0

> <PUBCHEM_HEAVY_ATOM_COUNT>
5

> <PUBCHEM_ATOM_DEF_STEREO_COUNT>
0

> <PUBCHEM_ATOM_UDEF_STEREO_COUNT>
0

> <PUBCHEM_BOND_DEF_STEREO_COUNT>
0

> <PUBCHEM_BOND_UDEF_STEREO_COUNT>
0

> <PUBCHEM_ISOTOPIC_ATOM_COUNT>
0

> <PUBCHEM_COMPONENT_COUNT>
1

> <PUBCHEM_CACTVS_TAUTO_COUNT>
1

> <PUBCHEM_CONFORMER_ID>
0002197100000001

> <PUBCHEM_MMFF94_ENERGY>
1.4099

> <PUBCHEM_FEATURE_SELFOVERLAP>
0

> <PUBCHEM_SHAPE_FINGERPRINT>
139733 1 9942436681564732362
20096714 4 17343515396879209808
21015797 1 11243979108272838386
24536 1 18272649052415183680
5943 1 11162074120566437250

> <PUBCHEM_SHAPE_MULTIPOLES>
88.78
1.66
1.08
1.08
1.22
0.32
0.17
0
0
-0.32
-0.17
-0.32
-0.32
0

> <PUBCHEM_SHAPE_SELFOVERLAP>
135.64

> <PUBCHEM_SHAPE_VOLUME>
65.8

> <PUBCHEM_COORDINATE_TYPE>
2
5
10

$$$$
