161938
  -OEChem-07262316193D

  4  3  0     0  0  0  0  0  0999 V2000
   -1.0499    0.0000    0.0000 Cl  0  0  0  0  0  0  0  0  0  0  0  0
    1.0499    0.0000    0.0000 P   0  0  0  0  0  0  0  0  0  0  0  0
    1.2120    1.3923    0.1937 H   0  0  0  0  0  0  0  0  0  0  0  0
    1.2121    0.0644   -1.4042 H   0  0  0  0  0  0  0  0  0  0  0  0
  1  2  1  0  0  0  0
  2  3  1  0  0  0  0
  2  4  1  0  0  0  0
M  END
> <PUBCHEM_COMPOUND_CID>
161938

> <PUBCHEM_CONFORMER_RMSD>
0.4

> <PUBCHEM_CONFORMER_DIVERSEORDER>
1

> <PUBCHEM_MMFF94_PARTIAL_CHARGES>
4
1 -0.21
2 0.02
3 0.1
4 0.1

> <PUBCHEM_EFFECTIVE_ROTOR_COUNT>
0

> <PUBCHEM_PHARMACOPHORE_FEATURES>
0

> <PUBCHEM_HEAVY_ATOM_COUNT>
2

> <PUBCHEM_ATOM_DEF_STEREO_COUNT>
0

> <PUBCHEM_ATOM_UDEF_STEREO_COUNT>
0

> <PUBCHEM_BOND_DEF_STEREO_COUNT>
0

> <PUBCHEM_BOND_UDEF_STEREO_COUNT>
0

> <PUBCHEM_ISOTOPIC_ATOM_COUNT>
0

> <PUBCHEM_COMPONENT_COUNT>
1

> <PUBCHEM_CACTVS_TAUTO_COUNT>
1

> <PUBCHEM_CONFORMER_ID>
0002789200000001

> <PUBCHEM_MMFF94_ENERGY>
0

> <PUBCHEM_FEATURE_SELFOVERLAP>
0

> <PUBCHEM_SHAPE_FINGERPRINT>
139733 1 8574709100518558318
21015797 1 8573268731654013194

> <PUBCHEM_SHAPE_MULTIPOLES>
46.88
1.77
0.67
0.67
0.04
0
0
0
0
-0.02
0
-0.02
0
0

> <PUBCHEM_SHAPE_SELFOVERLAP>
53.417

> <PUBCHEM_SHAPE_VOLUME>
42.5

> <PUBCHEM_COORDINATE_TYPE>
2
5
10

$$$$
