141139
  -OEChem-07262316193D

  7  6  0     0  0  0  0  0  0999 V2000
    1.3545   -1.0885   -0.0815 F   0  0  0  0  0  0  0  0  0  0  0  0
    1.3561    1.0880   -0.0862 F   0  0  0  0  0  0  0  0  0  0  0  0
   -1.3544   -1.1284    0.0626 F   0  0  0  0  0  0  0  0  0  0  0  0
   -1.3573    1.1268    0.0672 F   0  0  0  0  0  0  0  0  0  0  0  0
   -0.6550    0.0009   -0.2886 N   0  0  0  0  0  0  0  0  0  0  0  0
    0.6562    0.0012    0.3265 C   0  0  0  0  0  0  0  0  0  0  0  0
    0.6033    0.0034    1.4185 H   0  0  0  0  0  0  0  0  0  0  0  0
  1  6  1  0  0  0  0
  2  6  1  0  0  0  0
  3  5  1  0  0  0  0
  4  5  1  0  0  0  0
  5  6  1  0  0  0  0
  6  7  1  0  0  0  0
M  END
> <PUBCHEM_COMPOUND_CID>
141139

> <PUBCHEM_CONFORMER_RMSD>
0.4

> <PUBCHEM_CONFORMER_DIVERSEORDER>
1
2
3

> <PUBCHEM_MMFF94_PARTIAL_CHARGES>
6
1 -0.34
2 -0.34
3 -0.06
4 -0.06
5 -0.14
6 0.95

> <PUBCHEM_EFFECTIVE_ROTOR_COUNT>
1

> <PUBCHEM_PHARMACOPHORE_FEATURES>
0

> <PUBCHEM_HEAVY_ATOM_COUNT>
6

> <PUBCHEM_ATOM_DEF_STEREO_COUNT>
0

> <PUBCHEM_ATOM_UDEF_STEREO_COUNT>
0

> <PUBCHEM_BOND_DEF_STEREO_COUNT>
0

> <PUBCHEM_BOND_UDEF_STEREO_COUNT>
0

> <PUBCHEM_ISOTOPIC_ATOM_COUNT>
0

> <PUBCHEM_COMPONENT_COUNT>
1

> <PUBCHEM_CACTVS_TAUTO_COUNT>
1

> <PUBCHEM_CONFORMER_ID>
0002275300000001

> <PUBCHEM_MMFF94_ENERGY>
-0.8983

> <PUBCHEM_FEATURE_SELFOVERLAP>
0

> <PUBCHEM_SHAPE_FINGERPRINT>
139733 1 9438868078368057811
16714656 1 17762344617385008830
20096714 4 18337954480563520409
21015797 1 9295024473806086712
24536 1 18338498798932779520
5943 1 17412782469097302306

> <PUBCHEM_SHAPE_MULTIPOLES>
89.4
1.77
1.24
0.55
0.08
0
0.02
0
-0.02
0.05
-0.01
-0.02
0
0

> <PUBCHEM_SHAPE_SELFOVERLAP>
159.362

> <PUBCHEM_SHAPE_VOLUME>
58.7

> <PUBCHEM_COORDINATE_TYPE>
2
5
10

$$$$
