13980435
  -OEChem-07262316193D

  5  4  0     0  0  0  0  0  0999 V2000
    1.1565    0.6561   -0.0002 F   0  0  0  0  0  0  0  0  0  0  0  0
   -1.1567    0.6557   -0.0002 F   0  0  0  0  0  0  0  0  0  0  0  0
    0.0003   -1.2994   -0.0002 N   0  0  0  0  0  0  0  0  0  0  0  0
    0.0000   -0.0124    0.0005 C   0  0  0  0  0  0  0  0  0  0  0  0
   -0.9705   -1.6314   -0.0003 H   0  0  0  0  0  0  0  0  0  0  0  0
  1  4  1  0  0  0  0
  2  4  1  0  0  0  0
  3  4  2  0  0  0  0
  3  5  1  0  0  0  0
M  END
> <PUBCHEM_COMPOUND_CID>
13980435

> <PUBCHEM_CONFORMER_RMSD>
0.4

> <PUBCHEM_CONFORMER_DIVERSEORDER>
1

> <PUBCHEM_MMFF94_PARTIAL_CHARGES>
5
1 -0.22
2 -0.22
3 -0.85
4 0.89
5 0.4

> <PUBCHEM_EFFECTIVE_ROTOR_COUNT>
0

> <PUBCHEM_PHARMACOPHORE_FEATURES>
2
1 3 acceptor
1 3 donor

> <PUBCHEM_HEAVY_ATOM_COUNT>
4

> <PUBCHEM_ATOM_DEF_STEREO_COUNT>
0

> <PUBCHEM_ATOM_UDEF_STEREO_COUNT>
0

> <PUBCHEM_BOND_DEF_STEREO_COUNT>
0

> <PUBCHEM_BOND_UDEF_STEREO_COUNT>
0

> <PUBCHEM_ISOTOPIC_ATOM_COUNT>
0

> <PUBCHEM_COMPONENT_COUNT>
1

> <PUBCHEM_CACTVS_TAUTO_COUNT>
1

> <PUBCHEM_CONFORMER_ID>
00D5531300000001

> <PUBCHEM_MMFF94_ENERGY>
0.5441

> <PUBCHEM_FEATURE_SELFOVERLAP>
10.148

> <PUBCHEM_SHAPE_FINGERPRINT>
139733 1 9290433999986119715
21015797 1 9079118885876439047
5943 1 16694725389234261019

> <PUBCHEM_SHAPE_MULTIPOLES>
62.79
1.12
1.09
0.52
0.38
0
0
0
0
-0.39
0
0.01
0
0

> <PUBCHEM_SHAPE_SELFOVERLAP>
108.693

> <PUBCHEM_SHAPE_VOLUME>
41.8

> <PUBCHEM_COORDINATE_TYPE>
2
5
10

$$$$
