2736716
  -OEChem-07262316203D

  9  8  0     0  0  0  0  0  0999 V2000
   -1.8193   -1.2157   -0.0013 Cl  0  0  0  0  0  0  0  0  0  0  0  0
    0.9275   -1.3632    0.0029 F   0  0  0  0  0  0  0  0  0  0  0  0
    1.2623    0.4928   -1.0832 F   0  0  0  0  0  0  0  0  0  0  0  0
    1.2349    0.5005    1.0930 F   0  0  0  0  0  0  0  0  0  0  0  0
    0.6352   -0.0369   -0.0008 C   0  0  0  0  0  0  0  0  0  0  0  0
   -0.8337    0.2069   -0.0034 C   0  0  0  0  0  0  0  0  0  0  0  0
   -1.4069    1.4156   -0.0072 C   0  0  0  0  0  0  0  0  0  0  0  0
   -2.4848    1.5386   -0.0091 H   0  0  0  0  0  0  0  0  0  0  0  0
   -0.8012    2.3159   -0.0087 H   0  0  0  0  0  0  0  0  0  0  0  0
  1  6  1  0  0  0  0
  2  5  1  0  0  0  0
  3  5  1  0  0  0  0
  4  5  1  0  0  0  0
  5  6  1  0  0  0  0
  6  7  2  0  0  0  0
  7  8  1  0  0  0  0
  7  9  1  0  0  0  0
M  END
> <PUBCHEM_COMPOUND_CID>
2736716

> <PUBCHEM_CONFORMER_RMSD>
0.4

> <PUBCHEM_CONFORMER_DIVERSEORDER>
1

> <PUBCHEM_MMFF94_PARTIAL_CHARGES>
8
1 -0.14
2 -0.34
3 -0.34
4 -0.34
5 1.16
7 -0.3
8 0.15
9 0.15

> <PUBCHEM_EFFECTIVE_ROTOR_COUNT>
1

> <PUBCHEM_PHARMACOPHORE_FEATURES>
0

> <PUBCHEM_HEAVY_ATOM_COUNT>
7

> <PUBCHEM_ATOM_DEF_STEREO_COUNT>
0

> <PUBCHEM_ATOM_UDEF_STEREO_COUNT>
0

> <PUBCHEM_BOND_DEF_STEREO_COUNT>
0

> <PUBCHEM_BOND_UDEF_STEREO_COUNT>
0

> <PUBCHEM_ISOTOPIC_ATOM_COUNT>
0

> <PUBCHEM_COMPONENT_COUNT>
1

> <PUBCHEM_CACTVS_TAUTO_COUNT>
1

> <PUBCHEM_CONFORMER_ID>
0029C24C00000001

> <PUBCHEM_MMFF94_ENERGY>
3.4797

> <PUBCHEM_FEATURE_SELFOVERLAP>
0

> <PUBCHEM_SHAPE_FINGERPRINT>
16714656 1 18123487221367600175
20096714 4 17897462608995130061
21040471 1 18266740169274018021
24536 1 18114178618688303007
29004967 10 18193555794987552539
5943 1 12044532682658882113

> <PUBCHEM_SHAPE_MULTIPOLES>
124.11
2.06
1.43
0.83
0.35
0.01
0
0.24
-0.01
0.57
0
-0.3
-0.11
0

> <PUBCHEM_SHAPE_SELFOVERLAP>
228.481

> <PUBCHEM_SHAPE_VOLUME>
80.2

> <PUBCHEM_COORDINATE_TYPE>
2
5
10

$$$$
