102335
  -OEChem-07262316203D

  9  8  0     0  0  0  0  0  0999 V2000
   -0.3284    2.1786    0.0001 Cl  0  0  0  0  0  0  0  0  0  0  0  0
    2.0919    0.8301    0.0000 F   0  0  0  0  0  0  0  0  0  0  0  0
    1.3461   -0.8985    1.0902 F   0  0  0  0  0  0  0  0  0  0  0  0
    1.3461   -0.8984   -1.0903 F   0  0  0  0  0  0  0  0  0  0  0  0
   -2.5875    0.3494    0.0000 F   0  0  0  0  0  0  0  0  0  0  0  0
   -1.3454   -1.6192    0.0002 F   0  0  0  0  0  0  0  0  0  0  0  0
    1.1213   -0.1200    0.0000 C   0  0  0  0  0  0  0  0  0  0  0  0
   -0.2570    0.4469    0.0001 C   0  0  0  0  0  0  0  0  0  0  0  0
   -1.3872   -0.2689   -0.0002 C   0  0  0  0  0  0  0  0  0  0  0  0
  1  8  1  0  0  0  0
  2  7  1  0  0  0  0
  3  7  1  0  0  0  0
  4  7  1  0  0  0  0
  5  9  1  0  0  0  0
  6  9  1  0  0  0  0
  7  8  1  0  0  0  0
  8  9  2  0  0  0  0
M  END
> <PUBCHEM_COMPOUND_CID>
102335

> <PUBCHEM_CONFORMER_RMSD>
0.4

> <PUBCHEM_CONFORMER_DIVERSEORDER>
1

> <PUBCHEM_MMFF94_PARTIAL_CHARGES>
8
1 -0.14
2 -0.34
3 -0.34
4 -0.34
5 -0.15
6 -0.15
7 1.16
9 0.3

> <PUBCHEM_EFFECTIVE_ROTOR_COUNT>
1

> <PUBCHEM_PHARMACOPHORE_FEATURES>
0

> <PUBCHEM_HEAVY_ATOM_COUNT>
9

> <PUBCHEM_ATOM_DEF_STEREO_COUNT>
0

> <PUBCHEM_ATOM_UDEF_STEREO_COUNT>
0

> <PUBCHEM_BOND_DEF_STEREO_COUNT>
0

> <PUBCHEM_BOND_UDEF_STEREO_COUNT>
0

> <PUBCHEM_ISOTOPIC_ATOM_COUNT>
0

> <PUBCHEM_COMPONENT_COUNT>
1

> <PUBCHEM_CACTVS_TAUTO_COUNT>
1

> <PUBCHEM_CONFORMER_ID>
00018FBF00000001

> <PUBCHEM_MMFF94_ENERGY>
3.4915

> <PUBCHEM_FEATURE_SELFOVERLAP>
0

> <PUBCHEM_SHAPE_FINGERPRINT>
16714656 1 18339653239050336941
18185500 45 18334292097583500275
21040471 1 17257934793061419808
23211744 25 17610082404381510236
24536 1 18059851714626105112
29004967 10 18342466987958129777
5084963 1 17772471183764048697

> <PUBCHEM_SHAPE_MULTIPOLES>
150.72
2.47
1.73
0.76
0.44
0.74
0
-0.28
0
0.28
0
-0.28
-0.15
0

> <PUBCHEM_SHAPE_SELFOVERLAP>
288.599

> <PUBCHEM_SHAPE_VOLUME>
93.6

> <PUBCHEM_COORDINATE_TYPE>
2
5
10

$$$$
