137730
  -OEChem-07262316193D

 11 10  0     0  0  0  0  0  0999 V2000
    1.5134    0.2473    0.0000 Si  0  0  0  0  0  0  0  0  0  0  0  0
   -0.1544   -0.5898    0.0000 C   0  0  0  0  0  0  0  0  0  0  0  0
   -1.3590    0.3425    0.0000 C   0  0  0  0  0  0  0  0  0  0  0  0
   -0.2177   -1.2422   -0.8784 H   0  0  0  0  0  0  0  0  0  0  0  0
   -0.2177   -1.2422    0.8784 H   0  0  0  0  0  0  0  0  0  0  0  0
    2.5941   -0.7710    0.0000 H   0  0  0  0  0  0  0  0  0  0  0  0
    1.6582    1.0990    1.2079 H   0  0  0  0  0  0  0  0  0  0  0  0
    1.6581    1.0990   -1.2079 H   0  0  0  0  0  0  0  0  0  0  0  0
   -2.2863   -0.2397    0.0000 H   0  0  0  0  0  0  0  0  0  0  0  0
   -1.3662    0.9866    0.8863 H   0  0  0  0  0  0  0  0  0  0  0  0
   -1.3662    0.9866   -0.8862 H   0  0  0  0  0  0  0  0  0  0  0  0
  1  2  1  0  0  0  0
  1  6  1  0  0  0  0
  1  7  1  0  0  0  0
  1  8  1  0  0  0  0
  2  3  1  0  0  0  0
  2  4  1  0  0  0  0
  2  5  1  0  0  0  0
  3  9  1  0  0  0  0
  3 10  1  0  0  0  0
  3 11  1  0  0  0  0
M  END
> <PUBCHEM_COMPOUND_CID>
137730

> <PUBCHEM_CONFORMER_RMSD>
0.4

> <PUBCHEM_CONFORMER_DIVERSEORDER>
1

> <PUBCHEM_MMFF94_PARTIAL_CHARGES>
5
1 0.68
2 -0.08
6 -0.2
7 -0.2
8 -0.2

> <PUBCHEM_EFFECTIVE_ROTOR_COUNT>
0

> <PUBCHEM_PHARMACOPHORE_FEATURES>
0

> <PUBCHEM_HEAVY_ATOM_COUNT>
3

> <PUBCHEM_ATOM_DEF_STEREO_COUNT>
0

> <PUBCHEM_ATOM_UDEF_STEREO_COUNT>
0

> <PUBCHEM_BOND_DEF_STEREO_COUNT>
0

> <PUBCHEM_BOND_UDEF_STEREO_COUNT>
0

> <PUBCHEM_ISOTOPIC_ATOM_COUNT>
0

> <PUBCHEM_COMPONENT_COUNT>
1

> <PUBCHEM_CACTVS_TAUTO_COUNT>
1

> <PUBCHEM_CONFORMER_ID>
00021A0200000001

> <PUBCHEM_MMFF94_ENERGY>
-1.064

> <PUBCHEM_FEATURE_SELFOVERLAP>
0

> <PUBCHEM_SHAPE_FINGERPRINT>
139733 1 18410856568382743940
20096714 4 9655573028547044834
21015797 1 18263926720734088262
5460574 1 18410856551276714788

> <PUBCHEM_SHAPE_MULTIPOLES>
79.95
2.25
0.92
0.77
0.07
0.02
0
0.34
0
0.08
0
0.19
0.02
0

> <PUBCHEM_SHAPE_SELFOVERLAP>
112.377

> <PUBCHEM_SHAPE_VOLUME>
63.4

> <PUBCHEM_COORDINATE_TYPE>
2
5
10

$$$$
