12870917
  -OEChem-07262316203D

 11 10  0     0  0  0  0  0  0999 V2000
    0.0000   -0.7422    0.0001 S   0  0  0  0  0  0  0  0  0  0  0  0
   -0.0010   -1.6579   -1.2826 F   0  0  0  0  0  0  0  0  0  0  0  0
    0.0009   -1.6575    1.2831 F   0  0  0  0  0  0  0  0  0  0  0  0
    2.5538   -0.4344   -0.0018 F   0  0  0  0  0  0  0  0  0  0  0  0
    1.4376    1.0926   -1.0881 F   0  0  0  0  0  0  0  0  0  0  0  0
    1.4369    1.0851    1.0918 F   0  0  0  0  0  0  0  0  0  0  0  0
   -2.5539   -0.4343    0.0019 F   0  0  0  0  0  0  0  0  0  0  0  0
   -1.4375    1.0931    1.0879 F   0  0  0  0  0  0  0  0  0  0  0  0
   -1.4369    1.0848   -1.0921 F   0  0  0  0  0  0  0  0  0  0  0  0
    1.4065    0.2853   -0.0010 C   0  0  0  0  0  0  0  0  0  0  0  0
   -1.4065    0.2854    0.0010 C   0  0  0  0  0  0  0  0  0  0  0  0
  1  2  1  0  0  0  0
  1  3  1  0  0  0  0
  1 10  1  0  0  0  0
  1 11  1  0  0  0  0
  4 10  1  0  0  0  0
  5 10  1  0  0  0  0
  6 10  1  0  0  0  0
  7 11  1  0  0  0  0
  8 11  1  0  0  0  0
  9 11  1  0  0  0  0
M  END
> <PUBCHEM_COMPOUND_CID>
12870917

> <PUBCHEM_CONFORMER_RMSD>
0.4

> <PUBCHEM_CONFORMER_DIVERSEORDER>
1

> <PUBCHEM_MMFF94_PARTIAL_CHARGES>
11
1 0.19
10 1.13
11 1.13
2 -0.2
3 -0.2
4 -0.34
5 -0.34
6 -0.34
7 -0.34
8 -0.34
9 -0.34

> <PUBCHEM_EFFECTIVE_ROTOR_COUNT>
2

> <PUBCHEM_PHARMACOPHORE_FEATURES>
0

> <PUBCHEM_HEAVY_ATOM_COUNT>
11

> <PUBCHEM_ATOM_DEF_STEREO_COUNT>
0

> <PUBCHEM_ATOM_UDEF_STEREO_COUNT>
0

> <PUBCHEM_BOND_DEF_STEREO_COUNT>
0

> <PUBCHEM_BOND_UDEF_STEREO_COUNT>
0

> <PUBCHEM_ISOTOPIC_ATOM_COUNT>
0

> <PUBCHEM_COMPONENT_COUNT>
1

> <PUBCHEM_CACTVS_TAUTO_COUNT>
1

> <PUBCHEM_CONFORMER_ID>
00C4650500000001

> <PUBCHEM_MMFF94_ENERGY>
4.4796

> <PUBCHEM_FEATURE_SELFOVERLAP>
0

> <PUBCHEM_SHAPE_FINGERPRINT>
21040471 1 18410856606958308836
21922407 69 16662607916084787560
29004967 10 12535344618758569198
5084963 1 18335138695687975629

> <PUBCHEM_SHAPE_MULTIPOLES>
172.03
2.65
1.45
1.15
0
0.34
0
-0.43
0
0
0
0
0.02
0

> <PUBCHEM_SHAPE_SELFOVERLAP>
325.557

> <PUBCHEM_SHAPE_VOLUME>
107.7

> <PUBCHEM_COORDINATE_TYPE>
2
5
10

$$$$
