21731845
  -OEChem-07262316193D

  7  6  0     0  0  0  0  0  0999 V2000
    2.9063   -0.2374    0.0379 Cl  0  0  0  0  0  0  0  0  0  0  0  0
   -1.1063    1.1436   -0.6068 F   0  0  0  0  0  0  0  0  0  0  0  0
   -0.8708    0.1451    1.3400 F   0  0  0  0  0  0  0  0  0  0  0  0
   -1.8365   -0.9039   -0.3252 F   0  0  0  0  0  0  0  0  0  0  0  0
    0.3895   -0.5556   -0.4139 O   0  0  0  0  0  0  0  0  0  0  0  0
    1.3766    0.4422   -0.0348 O   0  0  0  0  0  0  0  0  0  0  0  0
   -0.8587   -0.0340    0.0028 C   0  0  0  0  0  0  0  0  0  0  0  0
  1  6  1  0  0  0  0
  2  7  1  0  0  0  0
  3  7  1  0  0  0  0
  4  7  1  0  0  0  0
  5  6  1  0  0  0  0
  5  7  1  0  0  0  0
M  END
> <PUBCHEM_COMPOUND_CID>
21731845

> <PUBCHEM_CONFORMER_RMSD>
0.4

> <PUBCHEM_CONFORMER_DIVERSEORDER>
1
3
2

> <PUBCHEM_MMFF94_PARTIAL_CHARGES>
7
1 -0.06
2 -0.34
3 -0.34
4 -0.34
5 -0.28
6 0.06
7 1.3

> <PUBCHEM_EFFECTIVE_ROTOR_COUNT>
2

> <PUBCHEM_PHARMACOPHORE_FEATURES>
0

> <PUBCHEM_HEAVY_ATOM_COUNT>
7

> <PUBCHEM_ATOM_DEF_STEREO_COUNT>
0

> <PUBCHEM_ATOM_UDEF_STEREO_COUNT>
0

> <PUBCHEM_BOND_DEF_STEREO_COUNT>
0

> <PUBCHEM_BOND_UDEF_STEREO_COUNT>
0

> <PUBCHEM_ISOTOPIC_ATOM_COUNT>
0

> <PUBCHEM_COMPONENT_COUNT>
1

> <PUBCHEM_CACTVS_TAUTO_COUNT>
1

> <PUBCHEM_CONFORMER_ID>
014B9A0500000001

> <PUBCHEM_MMFF94_ENERGY>
2.1401

> <PUBCHEM_FEATURE_SELFOVERLAP>
0

> <PUBCHEM_SHAPE_FINGERPRINT>
24536 1 17346321462211718726
29004967 10 18116437131557094443
5460574 1 8502378836624732982
5943 1 11793538075589025729

> <PUBCHEM_SHAPE_MULTIPOLES>
112.37
3.22
0.87
0.83
2.78
0.04
0.24
-0.36
-0.04
-0.27
-0.13
-0.23
0.08
0.02

> <PUBCHEM_SHAPE_SELFOVERLAP>
197.979

> <PUBCHEM_SHAPE_VOLUME>
75.7

> <PUBCHEM_COORDINATE_TYPE>
2
5
10

$$$$
