67630
  -OEChem-07262316193D

  6  5  0     0  0  0  0  0  0999 V2000
    0.2153    1.3074   -0.1994 F   0  0  0  0  0  0  0  0  0  0  0  0
    1.0798   -0.5130   -1.0407 F   0  0  0  0  0  0  0  0  0  0  0  0
    1.1401   -0.1713    1.1163 F   0  0  0  0  0  0  0  0  0  0  0  0
   -1.8788    0.0925   -0.0008 O   0  0  0  0  0  0  0  0  0  0  0  0
   -0.9343   -0.6950    0.1178 N   0  0  0  0  0  0  0  0  0  0  0  0
    0.3779   -0.0205    0.0068 C   0  0  0  0  0  0  0  0  0  0  0  0
  1  6  1  0  0  0  0
  2  6  1  0  0  0  0
  3  6  1  0  0  0  0
  4  5  2  0  0  0  0
  5  6  1  0  0  0  0
M  END
> <PUBCHEM_COMPOUND_CID>
67630

> <PUBCHEM_CONFORMER_RMSD>
0.4

> <PUBCHEM_CONFORMER_DIVERSEORDER>
1

> <PUBCHEM_MMFF94_PARTIAL_CHARGES>
6
1 -0.34
2 -0.34
3 -0.34
4 -0.16
5 -0.17
6 1.35

> <PUBCHEM_EFFECTIVE_ROTOR_COUNT>
1

> <PUBCHEM_PHARMACOPHORE_FEATURES>
0

> <PUBCHEM_HEAVY_ATOM_COUNT>
6

> <PUBCHEM_ATOM_DEF_STEREO_COUNT>
0

> <PUBCHEM_ATOM_UDEF_STEREO_COUNT>
0

> <PUBCHEM_BOND_DEF_STEREO_COUNT>
0

> <PUBCHEM_BOND_UDEF_STEREO_COUNT>
0

> <PUBCHEM_ISOTOPIC_ATOM_COUNT>
0

> <PUBCHEM_COMPONENT_COUNT>
1

> <PUBCHEM_CACTVS_TAUTO_COUNT>
1

> <PUBCHEM_CONFORMER_ID>
0001082E00000001

> <PUBCHEM_MMFF94_ENERGY>
0.5274

> <PUBCHEM_FEATURE_SELFOVERLAP>
0

> <PUBCHEM_SHAPE_FINGERPRINT>
139733 1 13479997790478570038
20096714 4 18190466158538866429
21015797 1 10590314016710794703
24536 1 18201161061039911211
5943 1 12797981156102582044

> <PUBCHEM_SHAPE_MULTIPOLES>
90.81
1.63
0.89
0.86
0.74
0.26
-0.02
-0.14
-0.04
-0.03
0.04
-0.39
-0.12
0.03

> <PUBCHEM_SHAPE_SELFOVERLAP>
168.348

> <PUBCHEM_SHAPE_VOLUME>
57.7

> <PUBCHEM_COORDINATE_TYPE>
2
5
10

$$$$
