67631
  -OEChem-07262316193D

  8  7  0     0  0  0  0  0  0999 V2000
   -0.8902   -0.0001    0.1298 S   0  0  0  0  0  0  0  0  0  0  0  0
   -1.4399    0.0010   -1.3584 F   0  0  0  0  0  0  0  0  0  0  0  0
    1.3201    1.1624   -0.5343 F   0  0  0  0  0  0  0  0  0  0  0  0
    1.2976   -1.0008   -0.8131 F   0  0  0  0  0  0  0  0  0  0  0  0
    1.4594   -0.1616    1.1952 F   0  0  0  0  0  0  0  0  0  0  0  0
   -1.3055   -1.2674    0.6946 O   0  0  0  0  0  0  0  0  0  0  0  0
   -1.3051    1.2666    0.6964 O   0  0  0  0  0  0  0  0  0  0  0  0
    0.8635   -0.0001   -0.0102 C   0  0  0  0  0  0  0  0  0  0  0  0
  1  2  1  0  0  0  0
  1  6  2  0  0  0  0
  1  7  2  0  0  0  0
  1  8  1  0  0  0  0
  3  8  1  0  0  0  0
  4  8  1  0  0  0  0
  5  8  1  0  0  0  0
M  END
> <PUBCHEM_COMPOUND_CID>
67631

> <PUBCHEM_CONFORMER_RMSD>
0.4

> <PUBCHEM_CONFORMER_DIVERSEORDER>
1

> <PUBCHEM_MMFF94_PARTIAL_CHARGES>
8
1 1.39
2 -0.2
3 -0.34
4 -0.34
5 -0.34
6 -0.65
7 -0.65
8 1.13

> <PUBCHEM_EFFECTIVE_ROTOR_COUNT>
1

> <PUBCHEM_PHARMACOPHORE_FEATURES>
0

> <PUBCHEM_HEAVY_ATOM_COUNT>
8

> <PUBCHEM_ATOM_DEF_STEREO_COUNT>
0

> <PUBCHEM_ATOM_UDEF_STEREO_COUNT>
0

> <PUBCHEM_BOND_DEF_STEREO_COUNT>
0

> <PUBCHEM_BOND_UDEF_STEREO_COUNT>
0

> <PUBCHEM_ISOTOPIC_ATOM_COUNT>
0

> <PUBCHEM_COMPONENT_COUNT>
1

> <PUBCHEM_CACTVS_TAUTO_COUNT>
1

> <PUBCHEM_CONFORMER_ID>
0001082F00000001

> <PUBCHEM_MMFF94_ENERGY>
0.4251

> <PUBCHEM_FEATURE_SELFOVERLAP>
0

> <PUBCHEM_SHAPE_FINGERPRINT>
20096714 4 18263945261992068489
21040471 1 18194693557314426905
24536 1 18411700984575202792
29004967 10 17701801388386258711
5084963 1 17912942586211207777
5943 1 16196780088403483179

> <PUBCHEM_SHAPE_MULTIPOLES>
127.65
1.99
1.16
1.09
0.12
0.06
-0.1
0
0
-0.15
0.09
-0.07
-0.06
0

> <PUBCHEM_SHAPE_SELFOVERLAP>
235.501

> <PUBCHEM_SHAPE_VOLUME>
81.3

> <PUBCHEM_COORDINATE_TYPE>
2
5
10

$$$$
