13707224
  -OEChem-07262316193D

  8  7  0     0  0  0  0  0  0999 V2000
    0.8845    0.0001    0.0000 Si  0  0  0  0  0  0  0  0  0  0  0  0
    1.4247   -1.1213    1.0013 F   0  0  0  0  0  0  0  0  0  0  0  0
    1.4247   -0.3067   -1.4716 F   0  0  0  0  0  0  0  0  0  0  0  0
    1.4250    1.4277    0.4703 F   0  0  0  0  0  0  0  0  0  0  0  0
   -1.4141    0.2567    1.2325 F   0  0  0  0  0  0  0  0  0  0  0  0
   -1.4138    0.9391   -0.8386 F   0  0  0  0  0  0  0  0  0  0  0  0
   -1.4141   -1.1956   -0.3940 F   0  0  0  0  0  0  0  0  0  0  0  0
   -0.9169    0.0001    0.0000 C   0  0  0  0  0  0  0  0  0  0  0  0
  1  2  1  0  0  0  0
  1  3  1  0  0  0  0
  1  4  1  0  0  0  0
  1  8  1  0  0  0  0
  5  8  1  0  0  0  0
  6  8  1  0  0  0  0
  7  8  1  0  0  0  0
M  END
> <PUBCHEM_COMPOUND_CID>
13707224

> <PUBCHEM_CONFORMER_RMSD>
0.4

> <PUBCHEM_CONFORMER_DIVERSEORDER>
1

> <PUBCHEM_MMFF94_PARTIAL_CHARGES>
8
1 1.31
2 -0.41
3 -0.41
4 -0.41
5 -0.34
6 -0.34
7 -0.34
8 0.94

> <PUBCHEM_EFFECTIVE_ROTOR_COUNT>
1

> <PUBCHEM_PHARMACOPHORE_FEATURES>
0

> <PUBCHEM_HEAVY_ATOM_COUNT>
8

> <PUBCHEM_ATOM_DEF_STEREO_COUNT>
0

> <PUBCHEM_ATOM_UDEF_STEREO_COUNT>
0

> <PUBCHEM_BOND_DEF_STEREO_COUNT>
0

> <PUBCHEM_BOND_UDEF_STEREO_COUNT>
0

> <PUBCHEM_ISOTOPIC_ATOM_COUNT>
0

> <PUBCHEM_COMPONENT_COUNT>
1

> <PUBCHEM_CACTVS_TAUTO_COUNT>
1

> <PUBCHEM_CONFORMER_ID>
00D127D800000001

> <PUBCHEM_MMFF94_ENERGY>
-0.0518

> <PUBCHEM_FEATURE_SELFOVERLAP>
0

> <PUBCHEM_SHAPE_FINGERPRINT>
137420 1 15669580944416614814
21040471 1 17749383707344688085
24536 1 16588022415738567828
29004967 10 17241063070590209993
5084963 1 17170103738698184853
5943 1 10833140172284613382

> <PUBCHEM_SHAPE_MULTIPOLES>
139.21
2.1
1.17
1.17
0.17
0.09
-0.03
0
0
-0.16
0.03
-0.16
-0.09
0

> <PUBCHEM_SHAPE_SELFOVERLAP>
260.053

> <PUBCHEM_SHAPE_VOLUME>
86.7

> <PUBCHEM_COORDINATE_TYPE>
2
5
10

$$$$
