136167
  -OEChem-07262316193D

  7  6  0     0  0  0  0  0  0999 V2000
   -0.6856   -0.0291    1.3372 F   0  0  0  0  0  0  0  0  0  0  0  0
   -1.2298   -1.0776   -0.5033 F   0  0  0  0  0  0  0  0  0  0  0  0
   -1.2154    1.1067   -0.4550 F   0  0  0  0  0  0  0  0  0  0  0  0
    1.4498   -1.1274    0.0281 F   0  0  0  0  0  0  0  0  0  0  0  0
    1.4493    1.1277    0.0281 F   0  0  0  0  0  0  0  0  0  0  0  0
    0.8084   -0.0001   -0.4243 N   0  0  0  0  0  0  0  0  0  0  0  0
   -0.5768   -0.0001   -0.0108 C   0  0  0  0  0  0  0  0  0  0  0  0
  1  7  1  0  0  0  0
  2  7  1  0  0  0  0
  3  7  1  0  0  0  0
  4  6  1  0  0  0  0
  5  6  1  0  0  0  0
  6  7  1  0  0  0  0
M  END
> <PUBCHEM_COMPOUND_CID>
136167

> <PUBCHEM_CONFORMER_RMSD>
0.4

> <PUBCHEM_CONFORMER_DIVERSEORDER>
1

> <PUBCHEM_MMFF94_PARTIAL_CHARGES>
7
1 -0.34
2 -0.34
3 -0.34
4 -0.06
5 -0.06
6 -0.14
7 1.29

> <PUBCHEM_EFFECTIVE_ROTOR_COUNT>
1

> <PUBCHEM_PHARMACOPHORE_FEATURES>
0

> <PUBCHEM_HEAVY_ATOM_COUNT>
7

> <PUBCHEM_ATOM_DEF_STEREO_COUNT>
0

> <PUBCHEM_ATOM_UDEF_STEREO_COUNT>
0

> <PUBCHEM_BOND_DEF_STEREO_COUNT>
0

> <PUBCHEM_BOND_UDEF_STEREO_COUNT>
0

> <PUBCHEM_ISOTOPIC_ATOM_COUNT>
0

> <PUBCHEM_COMPONENT_COUNT>
1

> <PUBCHEM_CACTVS_TAUTO_COUNT>
1

> <PUBCHEM_CONFORMER_ID>
000213E700000001

> <PUBCHEM_MMFF94_ENERGY>
-0.5004

> <PUBCHEM_FEATURE_SELFOVERLAP>
0

> <PUBCHEM_SHAPE_FINGERPRINT>
20096714 4 18190738639674782781
21015797 1 8646226825694016727
24536 1 17168153368078540900
29004967 10 17972886035964636355
5943 1 11867570375246102689

> <PUBCHEM_SHAPE_MULTIPOLES>
102.71
1.66
1.14
0.82
0.37
0.01
0.26
0
-0.12
0.1
-0.13
-0.22
-0.01
0

> <PUBCHEM_SHAPE_SELFOVERLAP>
191.799

> <PUBCHEM_SHAPE_VOLUME>
65.3

> <PUBCHEM_COORDINATE_TYPE>
2
5
10

$$$$
