13107654
  -OEChem-07262316203D

 11 10  0     0  0  0  0  0  0999 V2000
    0.5318   -0.0087    0.0001 Si  0  0  0  0  0  0  0  0  0  0  0  0
    1.6520    1.1165   -0.0015 F   0  0  0  0  0  0  0  0  0  0  0  0
    0.6475   -0.9047    1.3057 F   0  0  0  0  0  0  0  0  0  0  0  0
    0.6483   -0.9088   -1.3029 F   0  0  0  0  0  0  0  0  0  0  0  0
   -1.1395    0.8215   -0.0014 C   0  0  0  0  0  0  0  0  0  0  0  0
   -2.3401   -0.1158   -0.0001 C   0  0  0  0  0  0  0  0  0  0  0  0
   -1.2053    1.4751    0.8760 H   0  0  0  0  0  0  0  0  0  0  0  0
   -1.2051    1.4724   -0.8808 H   0  0  0  0  0  0  0  0  0  0  0  0
   -3.2699    0.4625   -0.0011 H   0  0  0  0  0  0  0  0  0  0  0  0
   -2.3444   -0.7614   -0.8853 H   0  0  0  0  0  0  0  0  0  0  0  0
   -2.3446   -0.7586    0.8871 H   0  0  0  0  0  0  0  0  0  0  0  0
  1  2  1  0  0  0  0
  1  3  1  0  0  0  0
  1  4  1  0  0  0  0
  1  5  1  0  0  0  0
  5  6  1  0  0  0  0
  5  7  1  0  0  0  0
  5  8  1  0  0  0  0
  6  9  1  0  0  0  0
  6 10  1  0  0  0  0
  6 11  1  0  0  0  0
M  END
> <PUBCHEM_COMPOUND_CID>
13107654

> <PUBCHEM_CONFORMER_RMSD>
0.4

> <PUBCHEM_CONFORMER_DIVERSEORDER>
1

> <PUBCHEM_MMFF94_PARTIAL_CHARGES>
5
1 1.31
2 -0.41
3 -0.41
4 -0.41
5 -0.08

> <PUBCHEM_EFFECTIVE_ROTOR_COUNT>
1

> <PUBCHEM_PHARMACOPHORE_FEATURES>
0

> <PUBCHEM_HEAVY_ATOM_COUNT>
6

> <PUBCHEM_ATOM_DEF_STEREO_COUNT>
0

> <PUBCHEM_ATOM_UDEF_STEREO_COUNT>
0

> <PUBCHEM_BOND_DEF_STEREO_COUNT>
0

> <PUBCHEM_BOND_UDEF_STEREO_COUNT>
0

> <PUBCHEM_ISOTOPIC_ATOM_COUNT>
0

> <PUBCHEM_COMPONENT_COUNT>
1

> <PUBCHEM_CACTVS_TAUTO_COUNT>
1

> <PUBCHEM_CONFORMER_ID>
00C801C600000001

> <PUBCHEM_MMFF94_ENERGY>
-0.985

> <PUBCHEM_FEATURE_SELFOVERLAP>
0

> <PUBCHEM_SHAPE_FINGERPRINT>
137420 1 11969250259718768484
16714656 1 17844525719674589661
20096714 4 18340201989741891168
24536 1 17987227833746035585
29004967 10 17845947212078656535
5943 1 8383858591041760646

> <PUBCHEM_SHAPE_MULTIPOLES>
119.87
2.31
1.11
1.05
1.35
0.08
0
0.2
0
-0.28
0
-0.3
-0.34
0

> <PUBCHEM_SHAPE_SELFOVERLAP>
203.348

> <PUBCHEM_SHAPE_VOLUME>
79.8

> <PUBCHEM_COORDINATE_TYPE>
2
5
10

$$$$
