67716
  -OEChem-07262316193D

  7  6  0     0  0  0  0  0  0999 V2000
    1.0672    1.2771    0.0008 F   0  0  0  0  0  0  0  0  0  0  0  0
    1.1398   -0.6101   -1.0895 F   0  0  0  0  0  0  0  0  0  0  0  0
    1.1387   -0.6110    1.0893 F   0  0  0  0  0  0  0  0  0  0  0  0
   -1.5492    1.0970   -0.0001 F   0  0  0  0  0  0  0  0  0  0  0  0
   -1.5322   -1.0920    0.0001 O   0  0  0  0  0  0  0  0  0  0  0  0
    0.6114    0.0006   -0.0001 C   0  0  0  0  0  0  0  0  0  0  0  0
   -0.8758   -0.0616   -0.0006 C   0  0  0  0  0  0  0  0  0  0  0  0
  1  6  1  0  0  0  0
  2  6  1  0  0  0  0
  3  6  1  0  0  0  0
  4  7  1  0  0  0  0
  5  7  2  0  0  0  0
  6  7  1  0  0  0  0
M  END
> <PUBCHEM_COMPOUND_CID>
67716

> <PUBCHEM_CONFORMER_RMSD>
0.4

> <PUBCHEM_CONFORMER_DIVERSEORDER>
1

> <PUBCHEM_MMFF94_PARTIAL_CHARGES>
7
1 -0.34
2 -0.34
3 -0.34
4 -0.22
5 -0.57
6 1.08
7 0.73

> <PUBCHEM_EFFECTIVE_ROTOR_COUNT>
1

> <PUBCHEM_PHARMACOPHORE_FEATURES>
0

> <PUBCHEM_HEAVY_ATOM_COUNT>
7

> <PUBCHEM_ATOM_DEF_STEREO_COUNT>
0

> <PUBCHEM_ATOM_UDEF_STEREO_COUNT>
0

> <PUBCHEM_BOND_DEF_STEREO_COUNT>
0

> <PUBCHEM_BOND_UDEF_STEREO_COUNT>
0

> <PUBCHEM_ISOTOPIC_ATOM_COUNT>
0

> <PUBCHEM_COMPONENT_COUNT>
1

> <PUBCHEM_CACTVS_TAUTO_COUNT>
1

> <PUBCHEM_CONFORMER_ID>
0001088400000001

> <PUBCHEM_MMFF94_ENERGY>
2.1959

> <PUBCHEM_FEATURE_SELFOVERLAP>
0

> <PUBCHEM_SHAPE_FINGERPRINT>
20096714 4 18335988583980265777
21015797 1 10015323332965493481
21040471 1 18050567348479076837
24536 1 18131630075818538929
29004967 10 17774459212572378950
5943 1 12716796687967712934

> <PUBCHEM_SHAPE_MULTIPOLES>
109.09
1.8
1.12
0.81
0.41
0.22
0
-0.03
0
0.14
0
-0.32
-0.19
0

> <PUBCHEM_SHAPE_SELFOVERLAP>
211.054

> <PUBCHEM_SHAPE_VOLUME>
66.4

> <PUBCHEM_COORDINATE_TYPE>
2
5
10

$$$$
