10125070
  -OEChem-07262316203D

  9  8  0     0  0  0  0  0  0999 V2000
   -0.3105   -1.5792    0.7324 F   0  0  0  0  0  0  0  0  0  0  0  0
   -0.7512   -0.7691   -1.2413 F   0  0  0  0  0  0  0  0  0  0  0  0
    1.3822    0.5200    1.2416 F   0  0  0  0  0  0  0  0  0  0  0  0
    0.9426    1.3858   -0.7102 F   0  0  0  0  0  0  0  0  0  0  0  0
    1.8920   -0.5766   -0.5723 F   0  0  0  0  0  0  0  0  0  0  0  0
   -2.3306    0.7432   -0.1133 O   0  0  0  0  0  0  0  0  0  0  0  0
   -1.3998    0.4704    0.6523 N   0  0  0  0  0  0  0  0  0  0  0  0
   -0.3905   -0.4250    0.0223 C   0  0  0  0  0  0  0  0  0  0  0  0
    0.9658    0.2304   -0.0114 C   0  0  0  0  0  0  0  0  0  0  0  0
  1  8  1  0  0  0  0
  2  8  1  0  0  0  0
  3  9  1  0  0  0  0
  4  9  1  0  0  0  0
  5  9  1  0  0  0  0
  6  7  2  0  0  0  0
  7  8  1  0  0  0  0
  8  9  1  0  0  0  0
M  END
> <PUBCHEM_COMPOUND_CID>
10125070

> <PUBCHEM_CONFORMER_RMSD>
0.4

> <PUBCHEM_CONFORMER_DIVERSEORDER>
1
2
3

> <PUBCHEM_MMFF94_PARTIAL_CHARGES>
9
1 -0.34
2 -0.34
3 -0.34
4 -0.34
5 -0.34
6 -0.16
7 -0.17
8 1.01
9 1.02

> <PUBCHEM_EFFECTIVE_ROTOR_COUNT>
2

> <PUBCHEM_PHARMACOPHORE_FEATURES>
0

> <PUBCHEM_HEAVY_ATOM_COUNT>
9

> <PUBCHEM_ATOM_DEF_STEREO_COUNT>
0

> <PUBCHEM_ATOM_UDEF_STEREO_COUNT>
0

> <PUBCHEM_BOND_DEF_STEREO_COUNT>
0

> <PUBCHEM_BOND_UDEF_STEREO_COUNT>
0

> <PUBCHEM_ISOTOPIC_ATOM_COUNT>
0

> <PUBCHEM_COMPONENT_COUNT>
1

> <PUBCHEM_CACTVS_TAUTO_COUNT>
1

> <PUBCHEM_CONFORMER_ID>
009A7F0E00000001

> <PUBCHEM_MMFF94_ENERGY>
-0.9635

> <PUBCHEM_FEATURE_SELFOVERLAP>
0

> <PUBCHEM_SHAPE_FINGERPRINT>
137420 1 16021917727434529331
20096714 4 18261401073737187677
21040471 1 18409168817970810849
24536 1 18192144017487986742
29004967 10 17969236559287487554
5084963 1 18341341019616750953
5943 1 8573302971339311087

> <PUBCHEM_SHAPE_MULTIPOLES>
138
2.16
1.18
0.99
0.52
0.14
0.02
-0.5
-0.05
0
-0.01
-0.12
0.05
0

> <PUBCHEM_SHAPE_SELFOVERLAP>
272.715

> <PUBCHEM_SHAPE_VOLUME>
82.6

> <PUBCHEM_COORDINATE_TYPE>
2
5
10

$$$$
