61106
  -OEChem-07262316193D

  7  6  0     0  0  0  0  0  0999 V2000
    1.8489    1.1437    0.0013 Cl  0  0  0  0  0  0  0  0  0  0  0  0
   -0.8291    1.3983    0.0030 F   0  0  0  0  0  0  0  0  0  0  0  0
   -1.2508   -0.4467    1.0874 F   0  0  0  0  0  0  0  0  0  0  0  0
   -1.2492   -0.4380   -1.0909 F   0  0  0  0  0  0  0  0  0  0  0  0
    1.2441   -1.4390   -0.0015 O   0  0  0  0  0  0  0  0  0  0  0  0
   -0.6132    0.0584    0.0009 C   0  0  0  0  0  0  0  0  0  0  0  0
    0.8495   -0.2767   -0.0003 C   0  0  0  0  0  0  0  0  0  0  0  0
  1  7  1  0  0  0  0
  2  6  1  0  0  0  0
  3  6  1  0  0  0  0
  4  6  1  0  0  0  0
  5  7  2  0  0  0  0
  6  7  1  0  0  0  0
M  END
> <PUBCHEM_COMPOUND_CID>
61106

> <PUBCHEM_CONFORMER_RMSD>
0.4

> <PUBCHEM_CONFORMER_DIVERSEORDER>
1

> <PUBCHEM_MMFF94_PARTIAL_CHARGES>
7
1 -0.21
2 -0.34
3 -0.34
4 -0.34
5 -0.57
6 1.08
7 0.72

> <PUBCHEM_EFFECTIVE_ROTOR_COUNT>
1

> <PUBCHEM_PHARMACOPHORE_FEATURES>
0

> <PUBCHEM_HEAVY_ATOM_COUNT>
7

> <PUBCHEM_ATOM_DEF_STEREO_COUNT>
0

> <PUBCHEM_ATOM_UDEF_STEREO_COUNT>
0

> <PUBCHEM_BOND_DEF_STEREO_COUNT>
0

> <PUBCHEM_BOND_UDEF_STEREO_COUNT>
0

> <PUBCHEM_ISOTOPIC_ATOM_COUNT>
0

> <PUBCHEM_COMPONENT_COUNT>
1

> <PUBCHEM_CACTVS_TAUTO_COUNT>
1

> <PUBCHEM_CONFORMER_ID>
0000EEB200000001

> <PUBCHEM_MMFF94_ENERGY>
5.0226

> <PUBCHEM_FEATURE_SELFOVERLAP>
0

> <PUBCHEM_SHAPE_FINGERPRINT>
16714656 1 17975992169329945628
20096714 4 18341054012648387872
21040471 1 18194683893843752000
24536 1 18040997323761591156
29004967 10 18263367047935711467
5943 1 14800273808133578695

> <PUBCHEM_SHAPE_MULTIPOLES>
118.24
2.01
1.32
0.82
0.61
0.08
0
-0.34
0
0.36
0
-0.33
0.05
0

> <PUBCHEM_SHAPE_SELFOVERLAP>
218.739

> <PUBCHEM_SHAPE_VOLUME>
75.7

> <PUBCHEM_COORDINATE_TYPE>
2
5
10

$$$$
