337239
  -OEChem-07262316203D

 12 11  0     0  0  0  0  0  0999 V2000
   -0.4528    0.6772   -0.0001 S   0  0  0  0  0  0  0  0  0  0  0  0
   -2.0246   -1.0256    1.1589 F   0  0  0  0  0  0  0  0  0  0  0  0
   -3.0197    0.4076   -0.1508 F   0  0  0  0  0  0  0  0  0  0  0  0
   -1.8747   -1.2397   -1.0083 F   0  0  0  0  0  0  0  0  0  0  0  0
    2.3417    0.4785    1.0939 F   0  0  0  0  0  0  0  0  0  0  0  0
    2.3459    0.4585   -1.1055 F   0  0  0  0  0  0  0  0  0  0  0  0
    2.7220   -1.3895    0.0119 F   0  0  0  0  0  0  0  0  0  0  0  0
    0.6332   -0.5427    0.0001 O   0  0  0  0  0  0  0  0  0  0  0  0
   -0.3948    1.3751   -1.2681 O   0  0  0  0  0  0  0  0  0  0  0  0
   -0.3947    1.3757    1.2677 O   0  0  0  0  0  0  0  0  0  0  0  0
   -1.8966   -0.3352    0.0002 C   0  0  0  0  0  0  0  0  0  0  0  0
    2.0152   -0.2399    0.0000 C   0  0  0  0  0  0  0  0  0  0  0  0
  1  8  1  0  0  0  0
  1  9  2  0  0  0  0
  1 10  2  0  0  0  0
  1 11  1  0  0  0  0
  2 11  1  0  0  0  0
  3 11  1  0  0  0  0
  4 11  1  0  0  0  0
  5 12  1  0  0  0  0
  6 12  1  0  0  0  0
  7 12  1  0  0  0  0
  8 12  1  0  0  0  0
M  END
> <PUBCHEM_COMPOUND_CID>
337239

> <PUBCHEM_CONFORMER_RMSD>
0.6

> <PUBCHEM_CONFORMER_DIVERSEORDER>
1
2

> <PUBCHEM_MMFF94_PARTIAL_CHARGES>
12
1 1.38
10 -0.65
11 1.13
12 1.3
2 -0.34
3 -0.34
4 -0.34
5 -0.34
6 -0.34
7 -0.34
8 -0.46
9 -0.65

> <PUBCHEM_EFFECTIVE_ROTOR_COUNT>
3

> <PUBCHEM_PHARMACOPHORE_FEATURES>
2
1 10 acceptor
1 9 acceptor

> <PUBCHEM_HEAVY_ATOM_COUNT>
12

> <PUBCHEM_ATOM_DEF_STEREO_COUNT>
0

> <PUBCHEM_ATOM_UDEF_STEREO_COUNT>
0

> <PUBCHEM_BOND_DEF_STEREO_COUNT>
0

> <PUBCHEM_BOND_UDEF_STEREO_COUNT>
0

> <PUBCHEM_ISOTOPIC_ATOM_COUNT>
0

> <PUBCHEM_COMPONENT_COUNT>
1

> <PUBCHEM_CACTVS_TAUTO_COUNT>
1

> <PUBCHEM_CONFORMER_ID>
0005255700000001

> <PUBCHEM_MMFF94_ENERGY>
3.4306

> <PUBCHEM_FEATURE_SELFOVERLAP>
10.165

> <PUBCHEM_SHAPE_FINGERPRINT>
12897270 3 17749112188149570798
12932764 1 18202288025734678822
14128692 85 18120106214664646711
16945 1 18339080509350874505
20653085 51 11963662253810964847
23552423 10 17968097486589626810
29004967 10 18113622330039312225
3248919 1 18040711497787856823
369184 2 17917703587280631203
5084963 1 18262801753072551674

> <PUBCHEM_SHAPE_MULTIPOLES>
189.55
3.91
1.28
1.12
0.62
0.01
0.03
-1
-0.01
-0.09
-0.02
-0.03
0.23
0.02

> <PUBCHEM_SHAPE_SELFOVERLAP>
365.957

> <PUBCHEM_SHAPE_VOLUME>
115.4

> <PUBCHEM_COORDINATE_TYPE>
2
5
10

$$$$
