3013860
  -OEChem-07262316203D

 14 13  0     1  0  0  0  0  0999 V2000
   -0.4937    1.2982    0.1566 F   0  0  0  0  0  0  0  0  0  0  0  0
   -0.4776    0.0302   -0.3416 C   0  0  1  0  0  0  0  0  0  0  0  0
    0.7280   -0.7044    0.2353 C   0  0  0  0  0  0  0  0  0  0  0  0
   -1.7852   -0.6382    0.0407 C   0  0  0  0  0  0  0  0  0  0  0  0
    2.0286    0.0141   -0.0910 C   0  0  0  0  0  0  0  0  0  0  0  0
   -0.3989    0.1057   -1.4311 H   0  0  0  0  0  0  0  0  0  0  0  0
    0.6351   -0.7676    1.3259 H   0  0  0  0  0  0  0  0  0  0  0  0
    0.7666   -1.7281   -0.1538 H   0  0  0  0  0  0  0  0  0  0  0  0
   -2.6297   -0.0713   -0.3642 H   0  0  0  0  0  0  0  0  0  0  0  0
   -1.8361   -1.6622   -0.3412 H   0  0  0  0  0  0  0  0  0  0  0  0
   -1.9077   -0.6607    1.1285 H   0  0  0  0  0  0  0  0  0  0  0  0
    2.8787   -0.5340    0.3271 H   0  0  0  0  0  0  0  0  0  0  0  0
    2.0380    1.0248    0.3294 H   0  0  0  0  0  0  0  0  0  0  0  0
    2.1727    0.0904   -1.1734 H   0  0  0  0  0  0  0  0  0  0  0  0
  1  2  1  0  0  0  0
  2  3  1  0  0  0  0
  2  4  1  0  0  0  0
  2  6  1  0  0  0  0
  3  5  1  0  0  0  0
  3  7  1  0  0  0  0
  3  8  1  0  0  0  0
  4  9  1  0  0  0  0
  4 10  1  0  0  0  0
  4 11  1  0  0  0  0
  5 12  1  0  0  0  0
  5 13  1  0  0  0  0
  5 14  1  0  0  0  0
M  END
> <PUBCHEM_COMPOUND_CID>
3013860

> <PUBCHEM_CONFORMER_RMSD>
0.4

> <PUBCHEM_CONFORMER_DIVERSEORDER>
1
6
4
5
2
3

> <PUBCHEM_MMFF94_PARTIAL_CHARGES>
2
1 -0.34
2 0.34

> <PUBCHEM_EFFECTIVE_ROTOR_COUNT>
1

> <PUBCHEM_PHARMACOPHORE_FEATURES>
1
1 5 hydrophobe

> <PUBCHEM_HEAVY_ATOM_COUNT>
5

> <PUBCHEM_ATOM_DEF_STEREO_COUNT>
0

> <PUBCHEM_ATOM_UDEF_STEREO_COUNT>
1

> <PUBCHEM_BOND_DEF_STEREO_COUNT>
0

> <PUBCHEM_BOND_UDEF_STEREO_COUNT>
0

> <PUBCHEM_ISOTOPIC_ATOM_COUNT>
0

> <PUBCHEM_COMPONENT_COUNT>
1

> <PUBCHEM_CACTVS_TAUTO_COUNT>
1

> <PUBCHEM_CONFORMER_ID>
002DFCE400000001

> <PUBCHEM_MMFF94_ENERGY>
-0.6513

> <PUBCHEM_FEATURE_SELFOVERLAP>
5.074

> <PUBCHEM_SHAPE_FINGERPRINT>
139733 1 9367354738206463711
16714656 1 18272093820075096182
20096714 4 18121782716594232648
21015797 1 9727050084434460759
21040471 1 17907295446977206392
24536 1 18194386815129470782
29004967 10 18337676415875245491
5460574 1 9799700298112748750
5943 1 8496119505616254109

> <PUBCHEM_SHAPE_MULTIPOLES>
95.62
2.36
1.01
0.64
0.41
0.22
-0.02
-0.35
-0.04
-0.15
0.08
0
-0.02
-0.03

> <PUBCHEM_SHAPE_SELFOVERLAP>
162.239

> <PUBCHEM_SHAPE_VOLUME>
65.6

> <PUBCHEM_COORDINATE_TYPE>
2
5
10

$$$$
