13665913
  -OEChem-07262316203D

 14 13  0     0  0  0  0  0  0999 V2000
    1.5731    0.0002    0.5781 F   0  0  0  0  0  0  0  0  0  0  0  0
   -0.5420   -0.0001   -0.4726 C   0  0  0  0  0  0  0  0  0  0  0  0
    0.9749   -0.0156   -0.6427 C   0  0  0  0  0  0  0  0  0  0  0  0
   -0.9908    1.2614    0.2629 C   0  0  0  0  0  0  0  0  0  0  0  0
   -1.0151   -1.2458    0.2743 C   0  0  0  0  0  0  0  0  0  0  0  0
   -0.9999   -0.0009   -1.4693 H   0  0  0  0  0  0  0  0  0  0  0  0
    1.3087   -0.9145   -1.1698 H   0  0  0  0  0  0  0  0  0  0  0  0
    1.3222    0.8611   -1.1978 H   0  0  0  0  0  0  0  0  0  0  0  0
   -2.0821    1.2917    0.3508 H   0  0  0  0  0  0  0  0  0  0  0  0
   -0.6741    2.1594   -0.2781 H   0  0  0  0  0  0  0  0  0  0  0  0
   -0.5692    1.3078    1.2727 H   0  0  0  0  0  0  0  0  0  0  0  0
   -2.1065   -1.2532    0.3645 H   0  0  0  0  0  0  0  0  0  0  0  0
   -0.7179   -2.1547   -0.2594 H   0  0  0  0  0  0  0  0  0  0  0  0
   -0.5922   -1.2922    1.2836 H   0  0  0  0  0  0  0  0  0  0  0  0
  1  3  1  0  0  0  0
  2  3  1  0  0  0  0
  2  4  1  0  0  0  0
  2  5  1  0  0  0  0
  2  6  1  0  0  0  0
  3  7  1  0  0  0  0
  3  8  1  0  0  0  0
  4  9  1  0  0  0  0
  4 10  1  0  0  0  0
  4 11  1  0  0  0  0
  5 12  1  0  0  0  0
  5 13  1  0  0  0  0
  5 14  1  0  0  0  0
M  END
> <PUBCHEM_COMPOUND_CID>
13665913

> <PUBCHEM_CONFORMER_RMSD>
0.4

> <PUBCHEM_CONFORMER_DIVERSEORDER>
1

> <PUBCHEM_MMFF94_PARTIAL_CHARGES>
2
1 -0.34
3 0.34

> <PUBCHEM_EFFECTIVE_ROTOR_COUNT>
1

> <PUBCHEM_PHARMACOPHORE_FEATURES>
1
3 2 4 5 hydrophobe

> <PUBCHEM_HEAVY_ATOM_COUNT>
5

> <PUBCHEM_ATOM_DEF_STEREO_COUNT>
0

> <PUBCHEM_ATOM_UDEF_STEREO_COUNT>
0

> <PUBCHEM_BOND_DEF_STEREO_COUNT>
0

> <PUBCHEM_BOND_UDEF_STEREO_COUNT>
0

> <PUBCHEM_ISOTOPIC_ATOM_COUNT>
0

> <PUBCHEM_COMPONENT_COUNT>
1

> <PUBCHEM_CACTVS_TAUTO_COUNT>
1

> <PUBCHEM_CONFORMER_ID>
00D0867900000001

> <PUBCHEM_MMFF94_ENERGY>
1.5015

> <PUBCHEM_FEATURE_SELFOVERLAP>
5.074

> <PUBCHEM_SHAPE_FINGERPRINT>
139733 1 10158886544777043487
20096714 4 17698442126638637537
21015797 1 10230662607998183965
21040471 1 18194130607355743725
5943 1 12748163675769904959

> <PUBCHEM_SHAPE_MULTIPOLES>
95.62
1.63
1.27
0.8
0.48
0.02
-0.03
-0.01
0.2
-0.65
0.14
0.12
0
0.01

> <PUBCHEM_SHAPE_SELFOVERLAP>
163.028

> <PUBCHEM_SHAPE_VOLUME>
65.6

> <PUBCHEM_COORDINATE_TYPE>
2
5
10

$$$$
