21572606
  -OEChem-07262316193D

 10  9  0     0  0  0  0  0  0999 V2000
    0.0001    1.8487   -0.0993 F   0  0  0  0  0  0  0  0  0  0  0  0
    2.3040    0.5182   -0.4863 F   0  0  0  0  0  0  0  0  0  0  0  0
    1.2809   -1.4067   -0.4923 F   0  0  0  0  0  0  0  0  0  0  0  0
    1.2787   -0.1685    1.3139 F   0  0  0  0  0  0  0  0  0  0  0  0
   -2.3038    0.5183   -0.4863 F   0  0  0  0  0  0  0  0  0  0  0  0
   -1.2790   -0.1686    1.3139 F   0  0  0  0  0  0  0  0  0  0  0  0
   -1.2809   -1.4066   -0.4925 F   0  0  0  0  0  0  0  0  0  0  0  0
    0.0000    0.5329   -0.4964 N   0  0  0  0  0  0  0  0  0  0  0  0
    1.2041   -0.1338   -0.0373 C   0  0  0  0  0  0  0  0  0  0  0  0
   -1.2041   -0.1339   -0.0374 C   0  0  0  0  0  0  0  0  0  0  0  0
  1  8  1  0  0  0  0
  2  9  1  0  0  0  0
  3  9  1  0  0  0  0
  4  9  1  0  0  0  0
  5 10  1  0  0  0  0
  6 10  1  0  0  0  0
  7 10  1  0  0  0  0
  8  9  1  0  0  0  0
  8 10  1  0  0  0  0
M  END
> <PUBCHEM_COMPOUND_CID>
21572606

> <PUBCHEM_CONFORMER_RMSD>
0.4

> <PUBCHEM_CONFORMER_DIVERSEORDER>
1

> <PUBCHEM_MMFF94_PARTIAL_CHARGES>
10
1 -0.06
10 1.29
2 -0.34
3 -0.34
4 -0.34
5 -0.34
6 -0.34
7 -0.34
8 -0.48
9 1.29

> <PUBCHEM_EFFECTIVE_ROTOR_COUNT>
2

> <PUBCHEM_PHARMACOPHORE_FEATURES>
0

> <PUBCHEM_HEAVY_ATOM_COUNT>
10

> <PUBCHEM_ATOM_DEF_STEREO_COUNT>
0

> <PUBCHEM_ATOM_UDEF_STEREO_COUNT>
0

> <PUBCHEM_BOND_DEF_STEREO_COUNT>
0

> <PUBCHEM_BOND_UDEF_STEREO_COUNT>
0

> <PUBCHEM_ISOTOPIC_ATOM_COUNT>
0

> <PUBCHEM_COMPONENT_COUNT>
1

> <PUBCHEM_CACTVS_TAUTO_COUNT>
1

> <PUBCHEM_CONFORMER_ID>
01492BFE00000001

> <PUBCHEM_MMFF94_ENERGY>
1.6691

> <PUBCHEM_FEATURE_SELFOVERLAP>
0

> <PUBCHEM_SHAPE_FINGERPRINT>
12423570 1 13695586654571631010
137420 1 15448709480644252740
18185500 45 18341332287658159399
21040471 1 18341604876479253967
24536 1 18262235517184240852
29004967 10 18263098706837045168
5084963 1 17844251941305562686

> <PUBCHEM_SHAPE_MULTIPOLES>
149.9
2.43
1.25
0.93
0
0.12
0.35
-0.01
-0.22
0
-0.23
0
-0.08
0

> <PUBCHEM_SHAPE_SELFOVERLAP>
297.312

> <PUBCHEM_SHAPE_VOLUME>
89.8

> <PUBCHEM_COORDINATE_TYPE>
2
5
10

$$$$
