520841
  -OEChem-07262316203D

 10  9  0     0  0  0  0  0  0999 V2000
   -2.3246   -0.0415    0.8584 F   0  0  0  0  0  0  0  0  0  0  0  0
   -1.2633    1.1190   -0.6659 F   0  0  0  0  0  0  0  0  0  0  0  0
   -1.2537   -1.0600   -0.7464 F   0  0  0  0  0  0  0  0  0  0  0  0
    2.2994   -0.0508    0.8789 F   0  0  0  0  0  0  0  0  0  0  0  0
    1.2739   -1.0516   -0.7648 F   0  0  0  0  0  0  0  0  0  0  0  0
    1.2771    1.1350   -0.6405 F   0  0  0  0  0  0  0  0  0  0  0  0
   -0.0015   -0.0478    0.8973 N   0  0  0  0  0  0  0  0  0  0  0  0
   -1.2079    0.0008    0.0949 C   0  0  0  0  0  0  0  0  0  0  0  0
    1.2005   -0.0031    0.0881 C   0  0  0  0  0  0  0  0  0  0  0  0
    0.0019    0.7444    1.5382 H   0  0  0  0  0  0  0  0  0  0  0  0
  1  8  1  0  0  0  0
  2  8  1  0  0  0  0
  3  8  1  0  0  0  0
  4  9  1  0  0  0  0
  5  9  1  0  0  0  0
  6  9  1  0  0  0  0
  7  8  1  0  0  0  0
  7  9  1  0  0  0  0
  7 10  1  0  0  0  0
M  END
> <PUBCHEM_COMPOUND_CID>
520841

> <PUBCHEM_CONFORMER_RMSD>
0.4

> <PUBCHEM_CONFORMER_DIVERSEORDER>
1

> <PUBCHEM_MMFF94_PARTIAL_CHARGES>
10
1 -0.34
10 0.36
2 -0.34
3 -0.34
4 -0.34
5 -0.34
6 -0.34
7 -0.9
8 1.29
9 1.29

> <PUBCHEM_EFFECTIVE_ROTOR_COUNT>
2

> <PUBCHEM_PHARMACOPHORE_FEATURES>
2
1 7 cation
1 7 donor

> <PUBCHEM_HEAVY_ATOM_COUNT>
9

> <PUBCHEM_ATOM_DEF_STEREO_COUNT>
0

> <PUBCHEM_ATOM_UDEF_STEREO_COUNT>
0

> <PUBCHEM_BOND_DEF_STEREO_COUNT>
0

> <PUBCHEM_BOND_UDEF_STEREO_COUNT>
0

> <PUBCHEM_ISOTOPIC_ATOM_COUNT>
0

> <PUBCHEM_COMPONENT_COUNT>
1

> <PUBCHEM_CACTVS_TAUTO_COUNT>
1

> <PUBCHEM_CONFORMER_ID>
0007F28900000001

> <PUBCHEM_MMFF94_ENERGY>
2.0177

> <PUBCHEM_FEATURE_SELFOVERLAP>
10.148

> <PUBCHEM_SHAPE_FINGERPRINT>
20096714 4 17894347752614513389
21040471 1 17703519830317867499
24536 1 18412546496153218125
29004967 10 18408609132261112938

> <PUBCHEM_SHAPE_MULTIPOLES>
136.59
2.62
0.98
0.95
0.03
0.07
-0.06
-0.03
-0.46
-0.01
0.32
-0.01
-0.05
0

> <PUBCHEM_SHAPE_SELFOVERLAP>
267.553

> <PUBCHEM_SHAPE_VOLUME>
82.7

> <PUBCHEM_COORDINATE_TYPE>
2
5
10

$$$$
