9898808
  -OEChem-07262316203D

  8  7  0     0  0  0  0  0  0999 V2000
   -1.9469    0.7688   -0.0497 F   0  0  0  0  0  0  0  0  0  0  0  0
   -0.8929   -0.7160    1.1437 F   0  0  0  0  0  0  0  0  0  0  0  0
   -0.9154   -0.8825   -1.0291 F   0  0  0  0  0  0  0  0  0  0  0  0
    1.5809    0.2502   -0.0185 N   0  3  0  0  0  0  0  0  0  0  0  0
    2.6000   -0.2613    0.0109 N   0  5  0  0  0  0  0  0  0  0  0  0
   -0.8274    0.0034   -0.0051 C   0  0  0  0  0  0  0  0  0  0  0  0
    0.4016    0.8374   -0.0521 C   0  0  0  0  0  0  0  0  0  0  0  0
    0.3189    1.9314   -0.1110 H   0  0  0  0  0  0  0  0  0  0  0  0
  1  6  1  0  0  0  0
  2  6  1  0  0  0  0
  3  6  1  0  0  0  0
  4  5  2  0  0  0  0
  4  7  2  0  0  0  0
  6  7  1  0  0  0  0
  7  8  1  0  0  0  0
M  CHG  2   4   1   5  -1
M  END
> <PUBCHEM_COMPOUND_CID>
9898808

> <PUBCHEM_CONFORMER_RMSD>
0.4

> <PUBCHEM_CONFORMER_DIVERSEORDER>
1

> <PUBCHEM_MMFF94_PARTIAL_CHARGES>
8
1 -0.34
2 -0.34
3 -0.34
4 0.36
5 -0.37
6 1.08
7 -0.11
8 0.06

> <PUBCHEM_EFFECTIVE_ROTOR_COUNT>
1

> <PUBCHEM_PHARMACOPHORE_FEATURES>
1
1 4 acceptor

> <PUBCHEM_HEAVY_ATOM_COUNT>
7

> <PUBCHEM_ATOM_DEF_STEREO_COUNT>
0

> <PUBCHEM_ATOM_UDEF_STEREO_COUNT>
0

> <PUBCHEM_BOND_DEF_STEREO_COUNT>
0

> <PUBCHEM_BOND_UDEF_STEREO_COUNT>
1

> <PUBCHEM_ISOTOPIC_ATOM_COUNT>
0

> <PUBCHEM_COMPONENT_COUNT>
1

> <PUBCHEM_CACTVS_TAUTO_COUNT>
1

> <PUBCHEM_CONFORMER_ID>
00970B3800000001

> <PUBCHEM_MMFF94_ENERGY>
4.1936

> <PUBCHEM_FEATURE_SELFOVERLAP>
5.074

> <PUBCHEM_SHAPE_FINGERPRINT>
139733 1 9439410124826399796
16714656 1 18339923718826555724
20096714 4 18334856108351911913
24536 1 17823973639886049924
29004967 10 18334864943479285712
5460574 1 9511460026461856052
5943 1 13296861897143072171

> <PUBCHEM_SHAPE_MULTIPOLES>
112.27
2.61
0.9
0.81
1.53
0.04
0.03
-0.05
-0.01
-0.19
-0.02
-0.26
-0.22
-0.01

> <PUBCHEM_SHAPE_SELFOVERLAP>
213.182

> <PUBCHEM_SHAPE_VOLUME>
69.1

> <PUBCHEM_COORDINATE_TYPE>
2
5
10

$$$$
