136206
  -OEChem-07262316203D

  9  8  0     0  0  0  0  0  0999 V2000
   -0.0001   -0.0033   -1.2499 S   0  0  0  0  0  0  0  0  0  0  0  0
    1.3395   -1.0893    0.7203 F   0  0  0  0  0  0  0  0  0  0  0  0
    2.5637    0.0068   -0.7187 F   0  0  0  0  0  0  0  0  0  0  0  0
    1.3249    1.0908    0.7110 F   0  0  0  0  0  0  0  0  0  0  0  0
   -1.3395    1.0932    0.7145 F   0  0  0  0  0  0  0  0  0  0  0  0
   -2.5636   -0.0108   -0.7186 F   0  0  0  0  0  0  0  0  0  0  0  0
   -1.3249   -1.0870    0.7168 F   0  0  0  0  0  0  0  0  0  0  0  0
    1.3654   -0.0029   -0.0877 C   0  0  0  0  0  0  0  0  0  0  0  0
   -1.3654    0.0024   -0.0877 C   0  0  0  0  0  0  0  0  0  0  0  0
  1  8  1  0  0  0  0
  1  9  1  0  0  0  0
  2  8  1  0  0  0  0
  3  8  1  0  0  0  0
  4  8  1  0  0  0  0
  5  9  1  0  0  0  0
  6  9  1  0  0  0  0
  7  9  1  0  0  0  0
M  END
> <PUBCHEM_COMPOUND_CID>
136206

> <PUBCHEM_CONFORMER_RMSD>
0.4

> <PUBCHEM_CONFORMER_DIVERSEORDER>
1

> <PUBCHEM_MMFF94_PARTIAL_CHARGES>
9
1 -0.46
2 -0.34
3 -0.34
4 -0.34
5 -0.34
6 -0.34
7 -0.34
8 1.25
9 1.25

> <PUBCHEM_EFFECTIVE_ROTOR_COUNT>
2

> <PUBCHEM_PHARMACOPHORE_FEATURES>
0

> <PUBCHEM_HEAVY_ATOM_COUNT>
9

> <PUBCHEM_ATOM_DEF_STEREO_COUNT>
0

> <PUBCHEM_ATOM_UDEF_STEREO_COUNT>
0

> <PUBCHEM_BOND_DEF_STEREO_COUNT>
0

> <PUBCHEM_BOND_UDEF_STEREO_COUNT>
0

> <PUBCHEM_ISOTOPIC_ATOM_COUNT>
0

> <PUBCHEM_COMPONENT_COUNT>
1

> <PUBCHEM_CACTVS_TAUTO_COUNT>
1

> <PUBCHEM_CONFORMER_ID>
0002140E00000001

> <PUBCHEM_MMFF94_ENERGY>
1.1563

> <PUBCHEM_FEATURE_SELFOVERLAP>
0

> <PUBCHEM_SHAPE_FINGERPRINT>
18185500 45 17240770634893941583
20096714 4 17632574989318288900
21040471 1 17749098985325163791
24536 1 18410293618292159604
29004967 10 16081382829495149540
5084963 1 18408885135291297917

> <PUBCHEM_SHAPE_MULTIPOLES>
145.42
2.92
1.08
0.98
0
0.22
0
0.24
0
0
0
0
-0.31
0.01

> <PUBCHEM_SHAPE_SELFOVERLAP>
270.144

> <PUBCHEM_SHAPE_VOLUME>
92.7

> <PUBCHEM_COORDINATE_TYPE>
2
5
10

$$$$
