2775798
  -OEChem-07262316203D

 14 13  0     0  0  0  0  0  0999 V2000
   -0.4468    0.1683    1.7245 F   0  0  0  0  0  0  0  0  0  0  0  0
   -1.0868    1.7548    0.3783 F   0  0  0  0  0  0  0  0  0  0  0  0
    0.7168    0.9106   -1.4960 F   0  0  0  0  0  0  0  0  0  0  0  0
    1.5750    1.4679    0.4264 F   0  0  0  0  0  0  0  0  0  0  0  0
   -1.1227   -1.7301   -0.1584 F   0  0  0  0  0  0  0  0  0  0  0  0
   -1.7123   -0.1510   -1.5354 F   0  0  0  0  0  0  0  0  0  0  0  0
   -2.7556   -0.3802    0.3659 F   0  0  0  0  0  0  0  0  0  0  0  0
    1.7194   -1.1824    1.1328 F   0  0  0  0  0  0  0  0  0  0  0  0
    2.8216   -0.6367   -0.6630 F   0  0  0  0  0  0  0  0  0  0  0  0
   -0.5646    0.5016    0.4094 C   0  0  0  0  0  0  0  0  0  0  0  0
    0.8275    0.5207   -0.1964 C   0  0  0  0  0  0  0  0  0  0  0  0
   -1.5456   -0.4513   -0.2279 C   0  0  0  0  0  0  0  0  0  0  0  0
    1.5739   -0.7921   -0.1600 C   0  0  0  0  0  0  0  0  0  0  0  0
    1.0878   -1.5873   -0.7283 H   0  0  0  0  0  0  0  0  0  0  0  0
  1 10  1  0  0  0  0
  2 10  1  0  0  0  0
  3 11  1  0  0  0  0
  4 11  1  0  0  0  0
  5 12  1  0  0  0  0
  6 12  1  0  0  0  0
  7 12  1  0  0  0  0
  8 13  1  0  0  0  0
  9 13  1  0  0  0  0
 10 11  1  0  0  0  0
 10 12  1  0  0  0  0
 11 13  1  0  0  0  0
 13 14  1  0  0  0  0
M  END
> <PUBCHEM_COMPOUND_CID>
2775798

> <PUBCHEM_CONFORMER_RMSD>
0.6

> <PUBCHEM_CONFORMER_DIVERSEORDER>
1
3
2

> <PUBCHEM_MMFF94_PARTIAL_CHARGES>
13
1 -0.34
10 0.68
11 0.68
12 1.02
13 0.68
2 -0.34
3 -0.34
4 -0.34
5 -0.34
6 -0.34
7 -0.34
8 -0.34
9 -0.34

> <PUBCHEM_EFFECTIVE_ROTOR_COUNT>
3

> <PUBCHEM_PHARMACOPHORE_FEATURES>
0

> <PUBCHEM_HEAVY_ATOM_COUNT>
13

> <PUBCHEM_ATOM_DEF_STEREO_COUNT>
0

> <PUBCHEM_ATOM_UDEF_STEREO_COUNT>
0

> <PUBCHEM_BOND_DEF_STEREO_COUNT>
0

> <PUBCHEM_BOND_UDEF_STEREO_COUNT>
0

> <PUBCHEM_ISOTOPIC_ATOM_COUNT>
0

> <PUBCHEM_COMPONENT_COUNT>
1

> <PUBCHEM_CACTVS_TAUTO_COUNT>
1

> <PUBCHEM_CONFORMER_ID>
002A5AF600000001

> <PUBCHEM_MMFF94_ENERGY>
2.9514

> <PUBCHEM_FEATURE_SELFOVERLAP>
0

> <PUBCHEM_SHAPE_FINGERPRINT>
12423570 1 10369748831968385202
13024252 1 15069203172614330430
137420 1 14597243609008376353
14128692 85 18339928220010317254
15310529 11 17022901228997582446
16945 1 18341039748872113306
18185500 45 18410576227161543274
19837323 101 14274025346762826767
23552333 60 18201163251088149584
23552423 10 18261958560460430111
29004967 10 18266178524890304697
369184 2 15410604844358375759
5084963 1 17530687589021029527

> <PUBCHEM_SHAPE_MULTIPOLES>
202.07
2.91
1.39
1.2
0.23
0.14
-0.03
-0.77
-0.21
0.06
0.1
-0.03
0.04
-0.18

> <PUBCHEM_SHAPE_SELFOVERLAP>
418.033

> <PUBCHEM_SHAPE_VOLUME>
115.1

> <PUBCHEM_COORDINATE_TYPE>
2
5
10

$$$$
