67828
  -OEChem-07262316203D

 15 15  0     0  0  0  0  0  0999 V2000
    0.7694   -2.2844   -0.5390 F   0  0  0  0  0  0  0  0  0  0  0  0
    0.2721   -1.5524    1.4454 F   0  0  0  0  0  0  0  0  0  0  0  0
    2.0742    0.0921    1.0824 F   0  0  0  0  0  0  0  0  0  0  0  0
    2.0727   -0.0903   -1.0842 F   0  0  0  0  0  0  0  0  0  0  0  0
   -2.0220   -1.4650    0.1062 F   0  0  0  0  0  0  0  0  0  0  0  0
   -1.0653   -0.6125   -1.6567 F   0  0  0  0  0  0  0  0  0  0  0  0
    0.7669    2.2843    0.5414 F   0  0  0  0  0  0  0  0  0  0  0  0
    0.2712    1.5546   -1.4443 F   0  0  0  0  0  0  0  0  0  0  0  0
   -2.0235    1.4629   -0.1071 F   0  0  0  0  0  0  0  0  0  0  0  0
   -1.0669    0.6112    1.6562 F   0  0  0  0  0  0  0  0  0  0  0  0
    0.3478   -1.2047    0.1323 C   0  0  0  0  0  0  0  0  0  0  0  0
    1.2739    0.0005   -0.0003 C   0  0  0  0  0  0  0  0  0  0  0  0
   -1.0080   -0.6937   -0.3082 C   0  0  0  0  0  0  0  0  0  0  0  0
    0.3466    1.2050   -0.1318 C   0  0  0  0  0  0  0  0  0  0  0  0
   -1.0089    0.6924    0.3077 C   0  0  0  0  0  0  0  0  0  0  0  0
  1 11  1  0  0  0  0
  2 11  1  0  0  0  0
  3 12  1  0  0  0  0
  4 12  1  0  0  0  0
  5 13  1  0  0  0  0
  6 13  1  0  0  0  0
  7 14  1  0  0  0  0
  8 14  1  0  0  0  0
  9 15  1  0  0  0  0
 10 15  1  0  0  0  0
 11 12  1  0  0  0  0
 11 13  1  0  0  0  0
 12 14  1  0  0  0  0
 13 15  1  0  0  0  0
 14 15  1  0  0  0  0
M  END
> <PUBCHEM_COMPOUND_CID>
67828

> <PUBCHEM_CONFORMER_RMSD>
0.4

> <PUBCHEM_CONFORMER_DIVERSEORDER>
1
2

> <PUBCHEM_MMFF94_PARTIAL_CHARGES>
15
1 -0.34
10 -0.34
11 0.68
12 0.68
13 0.68
14 0.68
15 0.68
2 -0.34
3 -0.34
4 -0.34
5 -0.34
6 -0.34
7 -0.34
8 -0.34
9 -0.34

> <PUBCHEM_EFFECTIVE_ROTOR_COUNT>
1

> <PUBCHEM_PHARMACOPHORE_FEATURES>
1
5 11 12 13 14 15 rings

> <PUBCHEM_HEAVY_ATOM_COUNT>
15

> <PUBCHEM_ATOM_DEF_STEREO_COUNT>
0

> <PUBCHEM_ATOM_UDEF_STEREO_COUNT>
0

> <PUBCHEM_BOND_DEF_STEREO_COUNT>
0

> <PUBCHEM_BOND_UDEF_STEREO_COUNT>
0

> <PUBCHEM_ISOTOPIC_ATOM_COUNT>
0

> <PUBCHEM_COMPONENT_COUNT>
1

> <PUBCHEM_CACTVS_TAUTO_COUNT>
1

> <PUBCHEM_CONFORMER_ID>
000108F400000001

> <PUBCHEM_MMFF94_ENERGY>
35.7736

> <PUBCHEM_FEATURE_SELFOVERLAP>
5.074

> <PUBCHEM_SHAPE_FINGERPRINT>
12423570 1 9121744941661738736
13024252 1 15720770456410192272
137420 1 12413073355166609107
16945 1 18413389834725578081
21040471 1 18194965145181450441
241688 4 18339931411228891042
2748010 2 18413107260179217508
5084963 1 18128560282197907827

> <PUBCHEM_SHAPE_MULTIPOLES>
235.96
2.02
2.01
1.26
0
0
0
0
0
0
0
0.02
0
-0.07

> <PUBCHEM_SHAPE_SELFOVERLAP>
526.374

> <PUBCHEM_SHAPE_VOLUME>
125.3

> <PUBCHEM_COORDINATE_TYPE>
2
5
10

$$$$
