10242447
  -OEChem-07262316203D

 12 12  0     0  0  0  0  0  0999 V2000
   -2.5989   -0.0019   -0.5279 Cl  0  0  0  0  0  0  0  0  0  0  0  0
   -1.2301    0.0057    1.6461 F   0  0  0  0  0  0  0  0  0  0  0  0
   -0.1411   -1.4913   -1.4282 F   0  0  0  0  0  0  0  0  0  0  0  0
    0.1062   -2.1741    0.6152 F   0  0  0  0  0  0  0  0  0  0  0  0
   -0.1262    1.5092   -1.4298 F   0  0  0  0  0  0  0  0  0  0  0  0
    0.0996    2.1571    0.6277 F   0  0  0  0  0  0  0  0  0  0  0  0
    1.6816    0.0057    1.2848 F   0  0  0  0  0  0  0  0  0  0  0  0
    2.1052   -0.0049   -0.8430 F   0  0  0  0  0  0  0  0  0  0  0  0
   -1.0110    0.0002    0.3063 C   0  0  0  0  0  0  0  0  0  0  0  0
    0.0062   -1.0659   -0.1516 C   0  0  0  0  0  0  0  0  0  0  0  0
    0.0063    1.0615   -0.1619 C   0  0  0  0  0  0  0  0  0  0  0  0
    1.1023   -0.0011    0.0623 C   0  0  0  0  0  0  0  0  0  0  0  0
  1  9  1  0  0  0  0
  2  9  1  0  0  0  0
  3 10  1  0  0  0  0
  4 10  1  0  0  0  0
  5 11  1  0  0  0  0
  6 11  1  0  0  0  0
  7 12  1  0  0  0  0
  8 12  1  0  0  0  0
  9 10  1  0  0  0  0
  9 11  1  0  0  0  0
 10 12  1  0  0  0  0
 11 12  1  0  0  0  0
M  END
> <PUBCHEM_COMPOUND_CID>
10242447

> <PUBCHEM_CONFORMER_RMSD>
0.4

> <PUBCHEM_CONFORMER_DIVERSEORDER>
1
2

> <PUBCHEM_MMFF94_PARTIAL_CHARGES>
12
1 -0.29
10 0.6
11 0.6
12 0.6
2 -0.3
3 -0.3
4 -0.3
5 -0.3
6 -0.3
7 -0.3
8 -0.3
9 0.59

> <PUBCHEM_EFFECTIVE_ROTOR_COUNT>
0.8

> <PUBCHEM_PHARMACOPHORE_FEATURES>
1
4 9 10 11 12 rings

> <PUBCHEM_HEAVY_ATOM_COUNT>
12

> <PUBCHEM_ATOM_DEF_STEREO_COUNT>
0

> <PUBCHEM_ATOM_UDEF_STEREO_COUNT>
0

> <PUBCHEM_BOND_DEF_STEREO_COUNT>
0

> <PUBCHEM_BOND_UDEF_STEREO_COUNT>
0

> <PUBCHEM_ISOTOPIC_ATOM_COUNT>
0

> <PUBCHEM_COMPONENT_COUNT>
1

> <PUBCHEM_CACTVS_TAUTO_COUNT>
1

> <PUBCHEM_CONFORMER_ID>
009C498F00000001

> <PUBCHEM_MMFF94_ENERGY>
7.4618

> <PUBCHEM_FEATURE_SELFOVERLAP>
5.074

> <PUBCHEM_SHAPE_FINGERPRINT>
12423570 1 17842247518691518181
13024252 1 17170363287914023426
137420 1 8047341289071572452
16945 1 18411124845114799595
21040471 1 17975410536099838725
241688 4 18130236947172727523
29004967 10 18335975385761802763
5084963 1 18268989795776196750
68250623 7 17686605858227350235

> <PUBCHEM_SHAPE_MULTIPOLES>
197.91
2.13
1.72
1.26
0.75
0.01
0.05
0
-0.12
-0.11
-0.07
0
-0.01
0

> <PUBCHEM_SHAPE_SELFOVERLAP>
411.733

> <PUBCHEM_SHAPE_VOLUME>
114.8

> <PUBCHEM_COORDINATE_TYPE>
2
5
10

$$$$
