12730146
  -OEChem-07262316193D

  7  6  0     0  0  0  0  0  0999 V2000
    0.8245   -0.8580   -1.0511 F   0  0  0  0  0  0  0  0  0  0  0  0
    1.9394    0.7209   -0.0226 F   0  0  0  0  0  0  0  0  0  0  0  0
    0.7979   -0.7415    1.1293 F   0  0  0  0  0  0  0  0  0  0  0  0
   -0.3825    0.8582   -0.0472 N   0  0  0  0  0  0  0  0  0  0  0  0
   -1.4834    0.2787   -0.0164 N   0  3  0  0  0  0  0  0  0  0  0  0
   -2.4894   -0.2582    0.0120 N   0  5  0  0  0  0  0  0  0  0  0  0
    0.7935   -0.0002   -0.0039 C   0  0  0  0  0  0  0  0  0  0  0  0
  1  7  1  0  0  0  0
  2  7  1  0  0  0  0
  3  7  1  0  0  0  0
  4  5  2  0  0  0  0
  4  7  1  0  0  0  0
  5  6  2  0  0  0  0
M  CHG  2   5   1   6  -1
M  END
> <PUBCHEM_COMPOUND_CID>
12730146

> <PUBCHEM_CONFORMER_RMSD>
0.4

> <PUBCHEM_CONFORMER_DIVERSEORDER>
1

> <PUBCHEM_MMFF94_PARTIAL_CHARGES>
7
1 -0.34
2 -0.34
3 -0.34
4 -0.56
5 0.69
6 -0.37
7 1.27

> <PUBCHEM_EFFECTIVE_ROTOR_COUNT>
1

> <PUBCHEM_PHARMACOPHORE_FEATURES>
0

> <PUBCHEM_HEAVY_ATOM_COUNT>
7

> <PUBCHEM_ATOM_DEF_STEREO_COUNT>
0

> <PUBCHEM_ATOM_UDEF_STEREO_COUNT>
0

> <PUBCHEM_BOND_DEF_STEREO_COUNT>
0

> <PUBCHEM_BOND_UDEF_STEREO_COUNT>
1

> <PUBCHEM_ISOTOPIC_ATOM_COUNT>
0

> <PUBCHEM_COMPONENT_COUNT>
1

> <PUBCHEM_CACTVS_TAUTO_COUNT>
1

> <PUBCHEM_CONFORMER_ID>
00C23F2200000001

> <PUBCHEM_MMFF94_ENERGY>
1.8918

> <PUBCHEM_FEATURE_SELFOVERLAP>
0

> <PUBCHEM_SHAPE_FINGERPRINT>
139733 1 9367339336648925565
20096714 4 18270114742137087104
24536 1 17986382300577184717
29004967 10 18131361812092561657
5460574 1 9367353630336983917
5943 1 13286444110353448714

> <PUBCHEM_SHAPE_MULTIPOLES>
107.29
2.5
0.86
0.81
1.38
0.01
-0.02
0.05
0
-0.18
0.02
-0.24
-0.24
0.01

> <PUBCHEM_SHAPE_SELFOVERLAP>
202.905

> <PUBCHEM_SHAPE_VOLUME>
66.4

> <PUBCHEM_COORDINATE_TYPE>
2
5
10

$$$$
