91450
  -OEChem-07262316203D

 12 11  0     0  0  0  0  0  0999 V2000
    1.0605   -1.4743   -0.0043 F   0  0  0  0  0  0  0  0  0  0  0  0
    2.0300    0.1366    1.0923 F   0  0  0  0  0  0  0  0  0  0  0  0
    2.0293    0.1455   -1.0879 F   0  0  0  0  0  0  0  0  0  0  0  0
   -1.0279   -1.4654   -0.0035 F   0  0  0  0  0  0  0  0  0  0  0  0
   -2.0607    0.1145    1.0805 F   0  0  0  0  0  0  0  0  0  0  0  0
   -2.0252    0.1360   -1.0958 F   0  0  0  0  0  0  0  0  0  0  0  0
   -0.0014    0.6636    0.0051 C   0  0  0  0  0  0  0  0  0  0  0  0
    1.2671   -0.1318    0.0013 C   0  0  0  0  0  0  0  0  0  0  0  0
   -1.2714   -0.1294    0.0022 C   0  0  0  0  0  0  0  0  0  0  0  0
   -0.0003    2.0048    0.0101 C   0  0  0  0  0  0  0  0  0  0  0  0
   -0.9286    2.5662    0.0126 H   0  0  0  0  0  0  0  0  0  0  0  0
    0.9288    2.5648    0.0118 H   0  0  0  0  0  0  0  0  0  0  0  0
  1  8  1  0  0  0  0
  2  8  1  0  0  0  0
  3  8  1  0  0  0  0
  4  9  1  0  0  0  0
  5  9  1  0  0  0  0
  6  9  1  0  0  0  0
  7  8  1  0  0  0  0
  7  9  1  0  0  0  0
  7 10  2  0  0  0  0
 10 11  1  0  0  0  0
 10 12  1  0  0  0  0
M  END
> <PUBCHEM_COMPOUND_CID>
91450

> <PUBCHEM_CONFORMER_RMSD>
0.4

> <PUBCHEM_CONFORMER_DIVERSEORDER>
1

> <PUBCHEM_MMFF94_PARTIAL_CHARGES>
12
1 -0.34
10 -0.3
11 0.15
12 0.15
2 -0.34
3 -0.34
4 -0.34
5 -0.34
6 -0.34
7 -0.28
8 1.16
9 1.16

> <PUBCHEM_EFFECTIVE_ROTOR_COUNT>
2

> <PUBCHEM_PHARMACOPHORE_FEATURES>
1
1 10 hydrophobe

> <PUBCHEM_HEAVY_ATOM_COUNT>
10

> <PUBCHEM_ATOM_DEF_STEREO_COUNT>
0

> <PUBCHEM_ATOM_UDEF_STEREO_COUNT>
0

> <PUBCHEM_BOND_DEF_STEREO_COUNT>
0

> <PUBCHEM_BOND_UDEF_STEREO_COUNT>
0

> <PUBCHEM_ISOTOPIC_ATOM_COUNT>
0

> <PUBCHEM_COMPONENT_COUNT>
1

> <PUBCHEM_CACTVS_TAUTO_COUNT>
1

> <PUBCHEM_CONFORMER_ID>
0001653A00000001

> <PUBCHEM_MMFF94_ENERGY>
7.3345

> <PUBCHEM_FEATURE_SELFOVERLAP>
5.074

> <PUBCHEM_SHAPE_FINGERPRINT>
137420 1 15594796118838742028
15310529 11 16732988647294479061
18185500 45 18410575110432999647
21040471 1 18338797810308426017
23552423 10 18044101150534433150
24536 1 18409169895917892292
29004967 10 18334581239045302841

> <PUBCHEM_SHAPE_MULTIPOLES>
162.15
2.49
1.46
0.93
0.02
0.36
0
-0.31
-0.01
-0.01
0
0
0.05
0

> <PUBCHEM_SHAPE_SELFOVERLAP>
326.671

> <PUBCHEM_SHAPE_VOLUME>
96.9

> <PUBCHEM_COORDINATE_TYPE>
2
5
10

$$$$
