77443
  -OEChem-07262316193D

  9  8  0     0  0  0  0  0  0999 V2000
    2.0639   -0.6311   -0.6830 F   0  0  0  0  0  0  0  0  0  0  0  0
    1.2346   -0.2206    1.3024 F   0  0  0  0  0  0  0  0  0  0  0  0
    1.0006    1.2572   -0.2975 F   0  0  0  0  0  0  0  0  0  0  0  0
   -2.4166   -0.7470   -0.1315 F   0  0  0  0  0  0  0  0  0  0  0  0
   -1.4219    1.1897   -0.0807 F   0  0  0  0  0  0  0  0  0  0  0  0
   -0.1933   -0.6780   -0.3805 O   0  0  0  0  0  0  0  0  0  0  0  0
    1.0324   -0.0638   -0.0234 C   0  0  0  0  0  0  0  0  0  0  0  0
   -1.2998   -0.1065    0.2943 C   0  0  0  0  0  0  0  0  0  0  0  0
   -1.2219   -0.1877    1.3828 H   0  0  0  0  0  0  0  0  0  0  0  0
  1  7  1  0  0  0  0
  2  7  1  0  0  0  0
  3  7  1  0  0  0  0
  4  8  1  0  0  0  0
  5  8  1  0  0  0  0
  6  7  1  0  0  0  0
  6  8  1  0  0  0  0
  8  9  1  0  0  0  0
M  END
> <PUBCHEM_COMPOUND_CID>
77443

> <PUBCHEM_CONFORMER_RMSD>
0.4

> <PUBCHEM_CONFORMER_DIVERSEORDER>
1
3
2

> <PUBCHEM_MMFF94_PARTIAL_CHARGES>
8
1 -0.34
2 -0.34
3 -0.34
4 -0.34
5 -0.34
6 -0.56
7 1.3
8 0.96

> <PUBCHEM_EFFECTIVE_ROTOR_COUNT>
2

> <PUBCHEM_PHARMACOPHORE_FEATURES>
1
1 6 acceptor

> <PUBCHEM_HEAVY_ATOM_COUNT>
8

> <PUBCHEM_ATOM_DEF_STEREO_COUNT>
0

> <PUBCHEM_ATOM_UDEF_STEREO_COUNT>
0

> <PUBCHEM_BOND_DEF_STEREO_COUNT>
0

> <PUBCHEM_BOND_UDEF_STEREO_COUNT>
0

> <PUBCHEM_ISOTOPIC_ATOM_COUNT>
0

> <PUBCHEM_COMPONENT_COUNT>
1

> <PUBCHEM_CACTVS_TAUTO_COUNT>
1

> <PUBCHEM_CONFORMER_ID>
00012E8300000001

> <PUBCHEM_MMFF94_ENERGY>
6.5267

> <PUBCHEM_FEATURE_SELFOVERLAP>
5.074

> <PUBCHEM_SHAPE_FINGERPRINT>
20096714 4 18334862739749645052
21040471 1 17905602207771194205
24536 1 18342166765575844045
29004967 10 18271254845653621970
5084963 1 18131074831015438571
5460574 1 8070031051461333902
5943 1 16158771749521399160

> <PUBCHEM_SHAPE_MULTIPOLES>
122.4
2.58
1.01
0.8
0.67
0.29
-0.22
-0.42
0.19
0.1
0.12
-0.31
-0.07
0.01

> <PUBCHEM_SHAPE_SELFOVERLAP>
235.038

> <PUBCHEM_SHAPE_VOLUME>
75.1

> <PUBCHEM_COORDINATE_TYPE>
2
5
10

$$$$
