67884
  -OEChem-07262316203D

 14 13  0     0  0  0  0  0  0999 V2000
    1.2605    1.0620    0.7863 F   0  0  0  0  0  0  0  0  0  0  0  0
    1.2465   -1.1156    0.7074 F   0  0  0  0  0  0  0  0  0  0  0  0
   -2.3656    0.0033   -0.8953 F   0  0  0  0  0  0  0  0  0  0  0  0
   -1.3445    1.0805    0.7012 F   0  0  0  0  0  0  0  0  0  0  0  0
   -1.3186   -1.0991    0.6735 F   0  0  0  0  0  0  0  0  0  0  0  0
    0.0037    0.0423   -0.9283 C   0  0  0  0  0  0  0  0  0  0  0  0
    1.2551    0.0026   -0.0616 C   0  0  0  0  0  0  0  0  0  0  0  0
   -1.2694    0.0002   -0.1080 C   0  0  0  0  0  0  0  0  0  0  0  0
    2.5323    0.0237   -0.8751 C   0  0  0  0  0  0  0  0  0  0  0  0
    0.0000    0.9555   -1.5339 H   0  0  0  0  0  0  0  0  0  0  0  0
    0.0029   -0.8142   -1.6118 H   0  0  0  0  0  0  0  0  0  0  0  0
    3.4004   -0.0053   -0.2087 H   0  0  0  0  0  0  0  0  0  0  0  0
    2.6047    0.9373   -1.4731 H   0  0  0  0  0  0  0  0  0  0  0  0
    2.5939   -0.8456   -1.5368 H   0  0  0  0  0  0  0  0  0  0  0  0
  1  7  1  0  0  0  0
  2  7  1  0  0  0  0
  3  8  1  0  0  0  0
  4  8  1  0  0  0  0
  5  8  1  0  0  0  0
  6  7  1  0  0  0  0
  6  8  1  0  0  0  0
  6 10  1  0  0  0  0
  6 11  1  0  0  0  0
  7  9  1  0  0  0  0
  9 12  1  0  0  0  0
  9 13  1  0  0  0  0
  9 14  1  0  0  0  0
M  END
> <PUBCHEM_COMPOUND_CID>
67884

> <PUBCHEM_CONFORMER_RMSD>
0.4

> <PUBCHEM_CONFORMER_DIVERSEORDER>
1
2
3

> <PUBCHEM_MMFF94_PARTIAL_CHARGES>
7
1 -0.34
2 -0.34
3 -0.34
4 -0.34
5 -0.34
7 0.68
8 1.02

> <PUBCHEM_EFFECTIVE_ROTOR_COUNT>
2

> <PUBCHEM_PHARMACOPHORE_FEATURES>
0

> <PUBCHEM_HEAVY_ATOM_COUNT>
9

> <PUBCHEM_ATOM_DEF_STEREO_COUNT>
0

> <PUBCHEM_ATOM_UDEF_STEREO_COUNT>
0

> <PUBCHEM_BOND_DEF_STEREO_COUNT>
0

> <PUBCHEM_BOND_UDEF_STEREO_COUNT>
0

> <PUBCHEM_ISOTOPIC_ATOM_COUNT>
0

> <PUBCHEM_COMPONENT_COUNT>
1

> <PUBCHEM_CACTVS_TAUTO_COUNT>
1

> <PUBCHEM_CONFORMER_ID>
0001092C00000001

> <PUBCHEM_MMFF94_ENERGY>
11.2421

> <PUBCHEM_FEATURE_SELFOVERLAP>
0

> <PUBCHEM_SHAPE_FINGERPRINT>
14390081 3 16008751337621587772
21040471 1 17821999904744653207
24536 1 18409167722701409300
29004967 10 17703525332529702406
5084963 1 18114754848670093150

> <PUBCHEM_SHAPE_MULTIPOLES>
148.85
2.96
1.02
0.97
0.31
0.09
0.03
0.6
-0.02
0.02
-0.02
-0.04
-0.31
0

> <PUBCHEM_SHAPE_SELFOVERLAP>
289.316

> <PUBCHEM_SHAPE_VOLUME>
91.3

> <PUBCHEM_COORDINATE_TYPE>
2
5
10

$$$$
