67890
  -OEChem-07262316203D

 14 13  0     0  0  0  0  0  0999 V2000
    2.8409   -1.0166   -0.0336 F   0  0  0  0  0  0  0  0  0  0  0  0
    2.1822    0.7338    1.0959 F   0  0  0  0  0  0  0  0  0  0  0  0
    2.1308    0.7577   -1.0843 F   0  0  0  0  0  0  0  0  0  0  0  0
   -2.8409    1.0166   -0.0321 F   0  0  0  0  0  0  0  0  0  0  0  0
   -2.1821   -0.7356    1.0946 F   0  0  0  0  0  0  0  0  0  0  0  0
   -2.1307   -0.7558   -1.0855 F   0  0  0  0  0  0  0  0  0  0  0  0
    0.5189   -0.5604    0.0184 C   0  0  0  0  0  0  0  0  0  0  0  0
   -0.5190    0.5604    0.0193 C   0  0  0  0  0  0  0  0  0  0  0  0
    1.9321   -0.0191    0.0036 C   0  0  0  0  0  0  0  0  0  0  0  0
   -1.9321    0.0190    0.0037 C   0  0  0  0  0  0  0  0  0  0  0  0
    0.3855   -1.1926    0.9036 H   0  0  0  0  0  0  0  0  0  0  0  0
    0.3744   -1.2003   -0.8597 H   0  0  0  0  0  0  0  0  0  0  0  0
   -0.3857    1.1913    0.9055 H   0  0  0  0  0  0  0  0  0  0  0  0
   -0.3745    1.2017   -0.8578 H   0  0  0  0  0  0  0  0  0  0  0  0
  1  9  1  0  0  0  0
  2  9  1  0  0  0  0
  3  9  1  0  0  0  0
  4 10  1  0  0  0  0
  5 10  1  0  0  0  0
  6 10  1  0  0  0  0
  7  8  1  0  0  0  0
  7  9  1  0  0  0  0
  7 11  1  0  0  0  0
  7 12  1  0  0  0  0
  8 10  1  0  0  0  0
  8 13  1  0  0  0  0
  8 14  1  0  0  0  0
M  END
> <PUBCHEM_COMPOUND_CID>
67890

> <PUBCHEM_CONFORMER_RMSD>
0.6

> <PUBCHEM_CONFORMER_DIVERSEORDER>
1
2
3

> <PUBCHEM_MMFF94_PARTIAL_CHARGES>
8
1 -0.34
10 1.02
2 -0.34
3 -0.34
4 -0.34
5 -0.34
6 -0.34
9 1.02

> <PUBCHEM_EFFECTIVE_ROTOR_COUNT>
3

> <PUBCHEM_PHARMACOPHORE_FEATURES>
0

> <PUBCHEM_HEAVY_ATOM_COUNT>
10

> <PUBCHEM_ATOM_DEF_STEREO_COUNT>
0

> <PUBCHEM_ATOM_UDEF_STEREO_COUNT>
0

> <PUBCHEM_BOND_DEF_STEREO_COUNT>
0

> <PUBCHEM_BOND_UDEF_STEREO_COUNT>
0

> <PUBCHEM_ISOTOPIC_ATOM_COUNT>
0

> <PUBCHEM_COMPONENT_COUNT>
1

> <PUBCHEM_CACTVS_TAUTO_COUNT>
1

> <PUBCHEM_CONFORMER_ID>
0001093200000001

> <PUBCHEM_MMFF94_ENERGY>
9.4349

> <PUBCHEM_FEATURE_SELFOVERLAP>
0

> <PUBCHEM_SHAPE_FINGERPRINT>
10857977 72 18261111936665285369
12897270 3 17489586770469512317
12932764 1 18131356331587697798
14390081 3 18272927219913915025
23235687 12 17095524010698281599
23552423 10 18186803560541780922
24536 1 18040996245513712325
29004967 10 18408325501110592840
3248919 1 18113332037478860075
369184 2 17988638605901019947
5084963 1 18335139769624984962

> <PUBCHEM_SHAPE_MULTIPOLES>
162.15
4.41
0.97
0.93
0
0
0.01
0
0
0
-0.01
0
0
0.02

> <PUBCHEM_SHAPE_SELFOVERLAP>
315.379

> <PUBCHEM_SHAPE_VOLUME>
99.3

> <PUBCHEM_COORDINATE_TYPE>
2
5
10

$$$$
