136257
  -OEChem-07262316203D

 10  9  0     0  0  0  0  0  0999 V2000
    2.8723   -0.8724    0.0001 F   0  0  0  0  0  0  0  0  0  0  0  0
    2.0866    1.3240   -0.0005 F   0  0  0  0  0  0  0  0  0  0  0  0
   -2.8721    0.8727    0.0002 F   0  0  0  0  0  0  0  0  0  0  0  0
   -2.0868   -1.3240   -0.0004 F   0  0  0  0  0  0  0  0  0  0  0  0
    0.5744   -0.4368    0.0001 C   0  0  0  0  0  0  0  0  0  0  0  0
   -0.5744    0.4366    0.0002 C   0  0  0  0  0  0  0  0  0  0  0  0
    1.8392   -0.0031    0.0003 C   0  0  0  0  0  0  0  0  0  0  0  0
   -1.8392    0.0031    0.0000 C   0  0  0  0  0  0  0  0  0  0  0  0
    0.3969   -1.5089    0.0003 H   0  0  0  0  0  0  0  0  0  0  0  0
   -0.3968    1.5086    0.0005 H   0  0  0  0  0  0  0  0  0  0  0  0
  1  7  1  0  0  0  0
  2  7  1  0  0  0  0
  3  8  1  0  0  0  0
  4  8  1  0  0  0  0
  5  6  1  0  0  0  0
  5  7  2  0  0  0  0
  5  9  1  0  0  0  0
  6  8  2  0  0  0  0
  6 10  1  0  0  0  0
M  END
> <PUBCHEM_COMPOUND_CID>
136257

> <PUBCHEM_CONFORMER_RMSD>
0.4

> <PUBCHEM_CONFORMER_DIVERSEORDER>
1
2
3

> <PUBCHEM_MMFF94_PARTIAL_CHARGES>
10
1 -0.15
10 0.15
2 -0.15
3 -0.15
4 -0.15
5 -0.15
6 -0.15
7 0.3
8 0.3
9 0.15

> <PUBCHEM_EFFECTIVE_ROTOR_COUNT>
1

> <PUBCHEM_PHARMACOPHORE_FEATURES>
0

> <PUBCHEM_HEAVY_ATOM_COUNT>
8

> <PUBCHEM_ATOM_DEF_STEREO_COUNT>
0

> <PUBCHEM_ATOM_UDEF_STEREO_COUNT>
0

> <PUBCHEM_BOND_DEF_STEREO_COUNT>
0

> <PUBCHEM_BOND_UDEF_STEREO_COUNT>
0

> <PUBCHEM_ISOTOPIC_ATOM_COUNT>
0

> <PUBCHEM_COMPONENT_COUNT>
1

> <PUBCHEM_CACTVS_TAUTO_COUNT>
1

> <PUBCHEM_CONFORMER_ID>
0002144100000001

> <PUBCHEM_MMFF94_ENERGY>
2.6843

> <PUBCHEM_FEATURE_SELFOVERLAP>
0

> <PUBCHEM_SHAPE_FINGERPRINT>
12932764 1 17458619003961350499
14325111 11 18410574006684322880
14390081 3 18341610455594642953
21040471 1 18338516473039661696
23552423 10 18260830427207646678
29004967 10 16845858992158995858
3248919 1 17418100905313898471
5460574 1 9295287244136906754

> <PUBCHEM_SHAPE_MULTIPOLES>
135.54
4.16
1.11
0.56
0
0
0
0
0
0
0
0
0
0

> <PUBCHEM_SHAPE_SELFOVERLAP>
259.101

> <PUBCHEM_SHAPE_VOLUME>
81.1

> <PUBCHEM_COORDINATE_TYPE>
2
5
10

$$$$
