5708528
  -OEChem-07262316203D

 12 11  0     0  0  0  0  0  0999 V2000
   -2.7706    1.0960   -0.0053 F   0  0  0  0  0  0  0  0  0  0  0  0
   -2.2922   -0.7377   -1.0802 F   0  0  0  0  0  0  0  0  0  0  0  0
   -2.2532   -0.7100    1.0980 F   0  0  0  0  0  0  0  0  0  0  0  0
    2.7704   -1.0962   -0.0073 F   0  0  0  0  0  0  0  0  0  0  0  0
    2.2925    0.7398   -1.0786 F   0  0  0  0  0  0  0  0  0  0  0  0
    2.2530    0.7078    1.0994 F   0  0  0  0  0  0  0  0  0  0  0  0
   -0.5163    0.4273   -0.0060 C   0  0  0  0  0  0  0  0  0  0  0  0
    0.5163   -0.4270   -0.0070 C   0  0  0  0  0  0  0  0  0  0  0  0
   -1.9473    0.0172   -0.0064 C   0  0  0  0  0  0  0  0  0  0  0  0
    1.9473   -0.0171   -0.0065 C   0  0  0  0  0  0  0  0  0  0  0  0
   -0.3140    1.4953   -0.0049 H   0  0  0  0  0  0  0  0  0  0  0  0
    0.3139   -1.4951   -0.0083 H   0  0  0  0  0  0  0  0  0  0  0  0
  1  9  1  0  0  0  0
  2  9  1  0  0  0  0
  3  9  1  0  0  0  0
  4 10  1  0  0  0  0
  5 10  1  0  0  0  0
  6 10  1  0  0  0  0
  7  8  2  0  0  0  0
  7  9  1  0  0  0  0
  7 11  1  0  0  0  0
  8 10  1  0  0  0  0
  8 12  1  0  0  0  0
M  END
> <PUBCHEM_COMPOUND_CID>
5708528

> <PUBCHEM_CONFORMER_RMSD>
0.4

> <PUBCHEM_CONFORMER_DIVERSEORDER>
1

> <PUBCHEM_MMFF94_PARTIAL_CHARGES>
12
1 -0.34
10 1.16
11 0.15
12 0.15
2 -0.34
3 -0.34
4 -0.34
5 -0.34
6 -0.34
7 -0.29
8 -0.29
9 1.16

> <PUBCHEM_EFFECTIVE_ROTOR_COUNT>
2

> <PUBCHEM_PHARMACOPHORE_FEATURES>
0

> <PUBCHEM_HEAVY_ATOM_COUNT>
10

> <PUBCHEM_ATOM_DEF_STEREO_COUNT>
0

> <PUBCHEM_ATOM_UDEF_STEREO_COUNT>
0

> <PUBCHEM_BOND_DEF_STEREO_COUNT>
1

> <PUBCHEM_BOND_UDEF_STEREO_COUNT>
0

> <PUBCHEM_ISOTOPIC_ATOM_COUNT>
0

> <PUBCHEM_COMPONENT_COUNT>
1

> <PUBCHEM_CACTVS_TAUTO_COUNT>
1

> <PUBCHEM_CONFORMER_ID>
00571AF000000001

> <PUBCHEM_MMFF94_ENERGY>
2.7964

> <PUBCHEM_FEATURE_SELFOVERLAP>
0

> <PUBCHEM_SHAPE_FINGERPRINT>
10857977 72 18260830457372540873
12897270 3 17418093221591136165
12932764 1 18131637802269441155
14390081 3 18272927219876998257
23552423 10 18187646868790991370
29004967 10 18408044026170805448
3248919 1 18113332028878375979
369184 2 18060696195659811347
5084963 1 18335421240317271322

> <PUBCHEM_SHAPE_MULTIPOLES>
162.15
4.53
0.96
0.93
0
0
0.01
0
-0.03
0
-0.01
0
0
-0.01

> <PUBCHEM_SHAPE_SELFOVERLAP>
319.154

> <PUBCHEM_SHAPE_VOLUME>
98.3

> <PUBCHEM_COORDINATE_TYPE>
2
5
10

$$$$
