136260
  -OEChem-07262316203D

  7  6  0     0  0  0  0  0  0999 V2000
    1.6302    0.0005    0.0007 P   0  0  0  0  0  0  0  0  0  0  0  0
   -0.4979   -0.5840   -1.1407 F   0  0  0  0  0  0  0  0  0  0  0  0
   -0.4994    1.2795    0.0643 F   0  0  0  0  0  0  0  0  0  0  0  0
   -0.4992   -0.6959    1.0756 F   0  0  0  0  0  0  0  0  0  0  0  0
   -0.1336   -0.0001    0.0000 C   0  0  0  0  0  0  0  0  0  0  0  0
    1.8345    0.5091   -1.3038 H   0  0  0  0  0  0  0  0  0  0  0  0
    1.8347   -1.3551   -0.3494 H   0  0  0  0  0  0  0  0  0  0  0  0
  1  5  1  0  0  0  0
  1  6  1  0  0  0  0
  1  7  1  0  0  0  0
  2  5  1  0  0  0  0
  3  5  1  0  0  0  0
  4  5  1  0  0  0  0
M  END
> <PUBCHEM_COMPOUND_CID>
136260

> <PUBCHEM_CONFORMER_RMSD>
0.4

> <PUBCHEM_CONFORMER_DIVERSEORDER>
1

> <PUBCHEM_MMFF94_PARTIAL_CHARGES>
7
1 -0.36
2 -0.34
3 -0.34
4 -0.34
5 1.19
6 0.1
7 0.1

> <PUBCHEM_EFFECTIVE_ROTOR_COUNT>
0

> <PUBCHEM_PHARMACOPHORE_FEATURES>
0

> <PUBCHEM_HEAVY_ATOM_COUNT>
5

> <PUBCHEM_ATOM_DEF_STEREO_COUNT>
0

> <PUBCHEM_ATOM_UDEF_STEREO_COUNT>
0

> <PUBCHEM_BOND_DEF_STEREO_COUNT>
0

> <PUBCHEM_BOND_UDEF_STEREO_COUNT>
0

> <PUBCHEM_ISOTOPIC_ATOM_COUNT>
0

> <PUBCHEM_COMPONENT_COUNT>
1

> <PUBCHEM_CACTVS_TAUTO_COUNT>
1

> <PUBCHEM_CONFORMER_ID>
0002144400000001

> <PUBCHEM_MMFF94_ENERGY>
8.0102

> <PUBCHEM_FEATURE_SELFOVERLAP>
0

> <PUBCHEM_SHAPE_FINGERPRINT>
139733 1 13541090904419775938
20096714 4 18050282566419843768
21015797 1 10878275149963217328
5943 1 10445362263479121286

> <PUBCHEM_SHAPE_MULTIPOLES>
84.93
1.41
0.95
0.95
0.91
0.13
-0.21
0
0
-0.19
0.21
-0.19
-0.13
0

> <PUBCHEM_SHAPE_SELFOVERLAP>
147.12

> <PUBCHEM_SHAPE_VOLUME>
58.7

> <PUBCHEM_COORDINATE_TYPE>
2
5
10

$$$$
