521081
  -OEChem-07262316193D

  4  3  0     0  0  0  0  0  0999 V2000
    1.5764   -0.0001    0.0000 S   0  0  0  0  0  0  0  0  0  0  0  0
   -0.7492   -1.1550    0.0000 F   0  0  0  0  0  0  0  0  0  0  0  0
   -0.7491    1.1551    0.0000 F   0  0  0  0  0  0  0  0  0  0  0  0
   -0.0782    0.0000    0.0000 C   0  0  0  0  0  0  0  0  0  0  0  0
  1  4  2  0  0  0  0
  2  4  1  0  0  0  0
  3  4  1  0  0  0  0
M  END
> <PUBCHEM_COMPOUND_CID>
521081

> <PUBCHEM_CONFORMER_RMSD>
0.4

> <PUBCHEM_CONFORMER_DIVERSEORDER>
1

> <PUBCHEM_MMFF94_PARTIAL_CHARGES>
4
1 -0.38
2 -0.22
3 -0.22
4 0.82

> <PUBCHEM_EFFECTIVE_ROTOR_COUNT>
0

> <PUBCHEM_PHARMACOPHORE_FEATURES>
1
1 1 acceptor

> <PUBCHEM_HEAVY_ATOM_COUNT>
4

> <PUBCHEM_ATOM_DEF_STEREO_COUNT>
0

> <PUBCHEM_ATOM_UDEF_STEREO_COUNT>
0

> <PUBCHEM_BOND_DEF_STEREO_COUNT>
0

> <PUBCHEM_BOND_UDEF_STEREO_COUNT>
0

> <PUBCHEM_ISOTOPIC_ATOM_COUNT>
0

> <PUBCHEM_COMPONENT_COUNT>
1

> <PUBCHEM_CACTVS_TAUTO_COUNT>
1

> <PUBCHEM_CONFORMER_ID>
0007F37900000001

> <PUBCHEM_MMFF94_ENERGY>
0.5144

> <PUBCHEM_FEATURE_SELFOVERLAP>
5.074

> <PUBCHEM_SHAPE_FINGERPRINT>
139733 1 18194683653130398116
20096714 4 9654761580328397238
21015797 1 18264205820562196710
5943 1 17262770861838203656

> <PUBCHEM_SHAPE_MULTIPOLES>
71.62
1.59
1.08
0.58
0.73
0
0
0
0
-0.4
0
0.09
0
0

> <PUBCHEM_SHAPE_SELFOVERLAP>
115.532

> <PUBCHEM_SHAPE_VOLUME>
50.8

> <PUBCHEM_COORDINATE_TYPE>
2
5
10

$$$$
