20453893
  -OEChem-07262316203D

 11 10  0     1  0  0  0  0  0999 V2000
    1.5320   -1.4505    0.2611 Cl  0  0  0  0  0  0  0  0  0  0  0  0
    1.0394    0.5019   -1.3232 F   0  0  0  0  0  0  0  0  0  0  0  0
   -1.3985    1.1158   -0.2600 F   0  0  0  0  0  0  0  0  0  0  0  0
   -1.1646   -0.4162    1.2732 F   0  0  0  0  0  0  0  0  0  0  0  0
   -1.2227   -0.9781   -0.8355 F   0  0  0  0  0  0  0  0  0  0  0  0
    0.7297    0.1109   -0.0555 C   0  0  1  0  0  0  0  0  0  0  0  0
   -0.7737   -0.0467    0.0341 C   0  0  0  0  0  0  0  0  0  0  0  0
    1.2583    1.1629    0.9058 C   0  0  0  0  0  0  0  0  0  0  0  0
    2.3401    1.2901    0.7871 H   0  0  0  0  0  0  0  0  0  0  0  0
    1.0495    0.9062    1.9495 H   0  0  0  0  0  0  0  0  0  0  0  0
    0.8053    2.1376    0.6943 H   0  0  0  0  0  0  0  0  0  0  0  0
  1  6  1  0  0  0  0
  2  6  1  0  0  0  0
  3  7  1  0  0  0  0
  4  7  1  0  0  0  0
  5  7  1  0  0  0  0
  6  7  1  0  0  0  0
  6  8  1  0  0  0  0
  8  9  1  0  0  0  0
  8 10  1  0  0  0  0
  8 11  1  0  0  0  0
M  END
> <PUBCHEM_COMPOUND_CID>
20453893

> <PUBCHEM_CONFORMER_RMSD>
0.4

> <PUBCHEM_CONFORMER_DIVERSEORDER>
2
1

> <PUBCHEM_MMFF94_PARTIAL_CHARGES>
7
1 -0.29
2 -0.34
3 -0.34
4 -0.34
5 -0.34
6 0.63
7 1.02

> <PUBCHEM_EFFECTIVE_ROTOR_COUNT>
1

> <PUBCHEM_PHARMACOPHORE_FEATURES>
0

> <PUBCHEM_HEAVY_ATOM_COUNT>
8

> <PUBCHEM_ATOM_DEF_STEREO_COUNT>
0

> <PUBCHEM_ATOM_UDEF_STEREO_COUNT>
1

> <PUBCHEM_BOND_DEF_STEREO_COUNT>
0

> <PUBCHEM_BOND_UDEF_STEREO_COUNT>
0

> <PUBCHEM_ISOTOPIC_ATOM_COUNT>
0

> <PUBCHEM_COMPONENT_COUNT>
1

> <PUBCHEM_CACTVS_TAUTO_COUNT>
1

> <PUBCHEM_CONFORMER_ID>
01381A0500000002

> <PUBCHEM_MMFF94_ENERGY>
4.932

> <PUBCHEM_FEATURE_SELFOVERLAP>
0

> <PUBCHEM_SHAPE_FINGERPRINT>
137420 1 15389208790700856924
21040471 1 18334010553987766973
24536 1 17676486176453779080
29004967 10 18188778365103297091
5084963 1 17970348109798635261
5943 1 12444994888225157220

> <PUBCHEM_SHAPE_MULTIPOLES>
137.41
1.91
1.36
1.08
0.02
0
-0.04
0.23
0.11
-0.42
0.12
0
-0.05
0

> <PUBCHEM_SHAPE_SELFOVERLAP>
257.092

> <PUBCHEM_SHAPE_VOLUME>
88.7

> <PUBCHEM_COORDINATE_TYPE>
2
5
10

$$$$
