67899
  -OEChem-07262316193D

 11 10  0     0  0  0  0  0  0999 V2000
   -0.5330   -0.7561   -1.1038 F   0  0  0  0  0  0  0  0  0  0  0  0
   -1.4856    0.8491    0.0235 F   0  0  0  0  0  0  0  0  0  0  0  0
   -0.5121   -0.7912    1.0803 F   0  0  0  0  0  0  0  0  0  0  0  0
    0.8689    0.7973    0.0002 C   0  0  0  0  0  0  0  0  0  0  0  0
   -0.4243    0.0131   -0.0001 C   0  0  0  0  0  0  0  0  0  0  0  0
    2.0861   -0.1121   -0.0002 C   0  0  0  0  0  0  0  0  0  0  0  0
    0.9005    1.4480   -0.8804 H   0  0  0  0  0  0  0  0  0  0  0  0
    0.9012    1.4448    0.8833 H   0  0  0  0  0  0  0  0  0  0  0  0
    2.0970   -0.7538   -0.8870 H   0  0  0  0  0  0  0  0  0  0  0  0
    3.0041    0.4838   -0.0014 H   0  0  0  0  0  0  0  0  0  0  0  0
    2.0990   -0.7526    0.8875 H   0  0  0  0  0  0  0  0  0  0  0  0
  1  5  1  0  0  0  0
  2  5  1  0  0  0  0
  3  5  1  0  0  0  0
  4  5  1  0  0  0  0
  4  6  1  0  0  0  0
  4  7  1  0  0  0  0
  4  8  1  0  0  0  0
  6  9  1  0  0  0  0
  6 10  1  0  0  0  0
  6 11  1  0  0  0  0
M  END
> <PUBCHEM_COMPOUND_CID>
67899

> <PUBCHEM_CONFORMER_RMSD>
0.4

> <PUBCHEM_CONFORMER_DIVERSEORDER>
1

> <PUBCHEM_MMFF94_PARTIAL_CHARGES>
4
1 -0.34
2 -0.34
3 -0.34
5 1.02

> <PUBCHEM_EFFECTIVE_ROTOR_COUNT>
1

> <PUBCHEM_PHARMACOPHORE_FEATURES>
1
1 6 hydrophobe

> <PUBCHEM_HEAVY_ATOM_COUNT>
6

> <PUBCHEM_ATOM_DEF_STEREO_COUNT>
0

> <PUBCHEM_ATOM_UDEF_STEREO_COUNT>
0

> <PUBCHEM_BOND_DEF_STEREO_COUNT>
0

> <PUBCHEM_BOND_UDEF_STEREO_COUNT>
0

> <PUBCHEM_ISOTOPIC_ATOM_COUNT>
0

> <PUBCHEM_COMPONENT_COUNT>
1

> <PUBCHEM_CACTVS_TAUTO_COUNT>
1

> <PUBCHEM_CONFORMER_ID>
0001093B00000001

> <PUBCHEM_MMFF94_ENERGY>
2.3191

> <PUBCHEM_FEATURE_SELFOVERLAP>
5.074

> <PUBCHEM_SHAPE_FINGERPRINT>
139733 1 9367355829386593736
20096714 4 18409728435082611264
21015797 1 11316788819798621364
24536 1 17969495090633526220
29004967 10 17620743320690673779
5943 1 10157996112209802339

> <PUBCHEM_SHAPE_MULTIPOLES>
101.66
1.95
0.93
0.87
0.92
0.06
-0.01
0.12
0
-0.12
0.01
-0.16
-0.24
0

> <PUBCHEM_SHAPE_SELFOVERLAP>
185.074

> <PUBCHEM_SHAPE_VOLUME>
66.5

> <PUBCHEM_COORDINATE_TYPE>
2
5
10

$$$$
