136263
  -OEChem-07262316203D

  9  8  0     0  0  0  0  0  0999 V2000
   -0.9802    1.0406    0.0158 S   0  0  0  0  0  0  0  0  0  0  0  0
    1.6229    0.7711    0.0132 F   0  0  0  0  0  0  0  0  0  0  0  0
    0.5448   -0.8035    1.0755 F   0  0  0  0  0  0  0  0  0  0  0  0
    0.5412   -0.7574   -1.1049 F   0  0  0  0  0  0  0  0  0  0  0  0
    0.4950    0.0216    0.0027 C   0  0  0  0  0  0  0  0  0  0  0  0
   -2.2237   -0.2723   -0.0022 C   0  0  0  0  0  0  0  0  0  0  0  0
   -3.2205    0.1766    0.0035 H   0  0  0  0  0  0  0  0  0  0  0  0
   -2.1237   -0.9053    0.8833 H   0  0  0  0  0  0  0  0  0  0  0  0
   -2.1231   -0.8814   -0.9043 H   0  0  0  0  0  0  0  0  0  0  0  0
  1  5  1  0  0  0  0
  1  6  1  0  0  0  0
  2  5  1  0  0  0  0
  3  5  1  0  0  0  0
  4  5  1  0  0  0  0
  6  7  1  0  0  0  0
  6  8  1  0  0  0  0
  6  9  1  0  0  0  0
M  END
> <PUBCHEM_COMPOUND_CID>
136263

> <PUBCHEM_CONFORMER_RMSD>
0.4

> <PUBCHEM_CONFORMER_DIVERSEORDER>
1

> <PUBCHEM_MMFF94_PARTIAL_CHARGES>
6
1 -0.46
2 -0.34
3 -0.34
4 -0.34
5 1.25
6 0.23

> <PUBCHEM_EFFECTIVE_ROTOR_COUNT>
1

> <PUBCHEM_PHARMACOPHORE_FEATURES>
1
1 6 hydrophobe

> <PUBCHEM_HEAVY_ATOM_COUNT>
6

> <PUBCHEM_ATOM_DEF_STEREO_COUNT>
0

> <PUBCHEM_ATOM_UDEF_STEREO_COUNT>
0

> <PUBCHEM_BOND_DEF_STEREO_COUNT>
0

> <PUBCHEM_BOND_UDEF_STEREO_COUNT>
0

> <PUBCHEM_ISOTOPIC_ATOM_COUNT>
0

> <PUBCHEM_COMPONENT_COUNT>
1

> <PUBCHEM_CACTVS_TAUTO_COUNT>
1

> <PUBCHEM_CONFORMER_ID>
0002144700000001

> <PUBCHEM_MMFF94_ENERGY>
2.192

> <PUBCHEM_FEATURE_SELFOVERLAP>
5.074

> <PUBCHEM_SHAPE_FINGERPRINT>
139733 1 9295287240306293033
16714656 1 17987798651778811053
20096714 4 18412823616043919496
24536 1 17915451697483882609
29004967 10 17989218052749959217
5943 1 15515066966112312110

> <PUBCHEM_SHAPE_MULTIPOLES>
105.51
2.17
1.06
0.87
0.93
0.17
0.01
0
0
0.04
-0.01
-0.16
-0.22
0

> <PUBCHEM_SHAPE_SELFOVERLAP>
178.972

> <PUBCHEM_SHAPE_VOLUME>
73.2

> <PUBCHEM_COORDINATE_TYPE>
2
5
10

$$$$
