67903
  -OEChem-07262316203D

 11 10  0     0  0  0  0  0  0999 V2000
    1.6216    1.3960    0.2507 Cl  0  0  0  0  0  0  0  0  0  0  0  0
   -1.3376   -1.1699   -0.1261 F   0  0  0  0  0  0  0  0  0  0  0  0
   -1.0968    0.4591    1.2946 F   0  0  0  0  0  0  0  0  0  0  0  0
    1.0692   -0.5867   -1.2833 F   0  0  0  0  0  0  0  0  0  0  0  0
    1.1413   -1.0464    0.8434 F   0  0  0  0  0  0  0  0  0  0  0  0
   -0.7636    0.0530    0.0425 C   0  0  0  0  0  0  0  0  0  0  0  0
    0.7407   -0.1099   -0.0558 C   0  0  0  0  0  0  0  0  0  0  0  0
   -1.3749    1.0049   -0.9660 C   0  0  0  0  0  0  0  0  0  0  0  0
   -1.1379    0.7008   -1.9901 H   0  0  0  0  0  0  0  0  0  0  0  0
   -2.4654    0.9987   -0.8664 H   0  0  0  0  0  0  0  0  0  0  0  0
   -1.0412    2.0344   -0.8088 H   0  0  0  0  0  0  0  0  0  0  0  0
  1  7  1  0  0  0  0
  2  6  1  0  0  0  0
  3  6  1  0  0  0  0
  4  7  1  0  0  0  0
  5  7  1  0  0  0  0
  6  7  1  0  0  0  0
  6  8  1  0  0  0  0
  8  9  1  0  0  0  0
  8 10  1  0  0  0  0
  8 11  1  0  0  0  0
M  END
> <PUBCHEM_COMPOUND_CID>
67903

> <PUBCHEM_CONFORMER_RMSD>
0.4

> <PUBCHEM_CONFORMER_DIVERSEORDER>
1
2
3

> <PUBCHEM_MMFF94_PARTIAL_CHARGES>
7
1 -0.29
2 -0.34
3 -0.34
4 -0.34
5 -0.34
6 0.68
7 0.97

> <PUBCHEM_EFFECTIVE_ROTOR_COUNT>
1

> <PUBCHEM_PHARMACOPHORE_FEATURES>
0

> <PUBCHEM_HEAVY_ATOM_COUNT>
8

> <PUBCHEM_ATOM_DEF_STEREO_COUNT>
0

> <PUBCHEM_ATOM_UDEF_STEREO_COUNT>
0

> <PUBCHEM_BOND_DEF_STEREO_COUNT>
0

> <PUBCHEM_BOND_UDEF_STEREO_COUNT>
0

> <PUBCHEM_ISOTOPIC_ATOM_COUNT>
0

> <PUBCHEM_COMPONENT_COUNT>
1

> <PUBCHEM_CACTVS_TAUTO_COUNT>
1

> <PUBCHEM_CONFORMER_ID>
0001093F00000001

> <PUBCHEM_MMFF94_ENERGY>
3.1298

> <PUBCHEM_FEATURE_SELFOVERLAP>
0

> <PUBCHEM_SHAPE_FINGERPRINT>
137420 1 11108266083372432904
20096714 4 18409158900896806948
21040471 1 17531804624110313053
24536 1 17846779576735268588
5084963 1 18195243549578531744

> <PUBCHEM_SHAPE_MULTIPOLES>
137.41
1.99
1.3
1.09
0.21
0.11
-0.01
0.44
0.02
0.12
-0.03
-0.05
0
0.17

> <PUBCHEM_SHAPE_SELFOVERLAP>
256.865

> <PUBCHEM_SHAPE_VOLUME>
88.6

> <PUBCHEM_COORDINATE_TYPE>
2
5
10

$$$$
