12583891
  -OEChem-07262316203D

 11 10  0     1  0  0  0  0  0999 V2000
   -1.3348   -1.2355    0.0424 F   0  0  0  0  0  0  0  0  0  0  0  0
    1.2034    1.1375   -0.5252 F   0  0  0  0  0  0  0  0  0  0  0  0
    0.7033    0.1043    1.3323 F   0  0  0  0  0  0  0  0  0  0  0  0
    1.3221   -1.0394   -0.4172 F   0  0  0  0  0  0  0  0  0  0  0  0
   -0.8253   -0.0760   -0.4587 C   0  0  2  0  0  0  0  0  0  0  0  0
    0.6128    0.0371   -0.0135 C   0  0  0  0  0  0  0  0  0  0  0  0
   -1.6815    1.0720    0.0399 C   0  0  0  0  0  0  0  0  0  0  0  0
   -0.8780   -0.1392   -1.5499 H   0  0  0  0  0  0  0  0  0  0  0  0
   -1.6928    1.1044    1.1342 H   0  0  0  0  0  0  0  0  0  0  0  0
   -1.3197    2.0331   -0.3373 H   0  0  0  0  0  0  0  0  0  0  0  0
   -2.7179    0.9366   -0.2857 H   0  0  0  0  0  0  0  0  0  0  0  0
  1  5  1  0  0  0  0
  2  6  1  0  0  0  0
  3  6  1  0  0  0  0
  4  6  1  0  0  0  0
  5  6  1  0  0  0  0
  5  7  1  0  0  0  0
  5  8  1  0  0  0  0
  7  9  1  0  0  0  0
  7 10  1  0  0  0  0
  7 11  1  0  0  0  0
M  END
> <PUBCHEM_COMPOUND_CID>
12583891

> <PUBCHEM_CONFORMER_RMSD>
0.4

> <PUBCHEM_CONFORMER_DIVERSEORDER>
2
1

> <PUBCHEM_MMFF94_PARTIAL_CHARGES>
6
1 -0.34
2 -0.34
3 -0.34
4 -0.34
5 0.34
6 1.02

> <PUBCHEM_EFFECTIVE_ROTOR_COUNT>
1

> <PUBCHEM_PHARMACOPHORE_FEATURES>
0

> <PUBCHEM_HEAVY_ATOM_COUNT>
7

> <PUBCHEM_ATOM_DEF_STEREO_COUNT>
0

> <PUBCHEM_ATOM_UDEF_STEREO_COUNT>
1

> <PUBCHEM_BOND_DEF_STEREO_COUNT>
0

> <PUBCHEM_BOND_UDEF_STEREO_COUNT>
0

> <PUBCHEM_ISOTOPIC_ATOM_COUNT>
0

> <PUBCHEM_COMPONENT_COUNT>
1

> <PUBCHEM_CACTVS_TAUTO_COUNT>
1

> <PUBCHEM_CONFORMER_ID>
00C003D300000002

> <PUBCHEM_MMFF94_ENERGY>
2.2888

> <PUBCHEM_FEATURE_SELFOVERLAP>
0

> <PUBCHEM_SHAPE_FINGERPRINT>
137420 1 13313142679121336968
16714656 1 17903362511101242934
20096714 4 18334018254848350021
21040471 1 18341045203712674845
24536 1 18338502110526644733
29004967 10 18045235837949423890
5943 1 12906663052796174449

> <PUBCHEM_SHAPE_MULTIPOLES>
114.96
1.87
1.19
0.84
0.41
0.09
0.21
-0.17
-0.08
0.13
-0.1
-0.17
-0.07
-0.01

> <PUBCHEM_SHAPE_SELFOVERLAP>
216.974

> <PUBCHEM_SHAPE_VOLUME>
72.7

> <PUBCHEM_COORDINATE_TYPE>
2
5
10

$$$$
