61113
  -OEChem-07262316203D

 11 10  0     0  0  0  0  0  0999 V2000
   -1.5489   -1.5908   -0.8584 Cl  0  0  0  0  0  0  0  0  0  0  0  0
    0.0915    1.7212    0.5267 F   0  0  0  0  0  0  0  0  0  0  0  0
    0.0132    0.9272   -1.4974 F   0  0  0  0  0  0  0  0  0  0  0  0
   -1.3030   -0.4845    1.4308 F   0  0  0  0  0  0  0  0  0  0  0  0
   -2.3200    0.7253   -0.0650 F   0  0  0  0  0  0  0  0  0  0  0  0
    1.3179   -1.3617   -0.6810 F   0  0  0  0  0  0  0  0  0  0  0  0
    1.3490   -0.6111    1.3618 F   0  0  0  0  0  0  0  0  0  0  0  0
    2.3849    0.4832   -0.2142 F   0  0  0  0  0  0  0  0  0  0  0  0
    0.0243    0.5658   -0.1838 C   0  0  0  0  0  0  0  0  0  0  0  0
   -1.2871   -0.1362    0.1167 C   0  0  0  0  0  0  0  0  0  0  0  0
    1.2782   -0.2385    0.0639 C   0  0  0  0  0  0  0  0  0  0  0  0
  1 10  1  0  0  0  0
  2  9  1  0  0  0  0
  3  9  1  0  0  0  0
  4 10  1  0  0  0  0
  5 10  1  0  0  0  0
  6 11  1  0  0  0  0
  7 11  1  0  0  0  0
  8 11  1  0  0  0  0
  9 10  1  0  0  0  0
  9 11  1  0  0  0  0
M  END
> <PUBCHEM_COMPOUND_CID>
61113

> <PUBCHEM_CONFORMER_RMSD>
0.4

> <PUBCHEM_CONFORMER_DIVERSEORDER>
1
2
3

> <PUBCHEM_MMFF94_PARTIAL_CHARGES>
11
1 -0.29
10 0.97
11 1.02
2 -0.34
3 -0.34
4 -0.34
5 -0.34
6 -0.34
7 -0.34
8 -0.34
9 0.68

> <PUBCHEM_EFFECTIVE_ROTOR_COUNT>
2

> <PUBCHEM_PHARMACOPHORE_FEATURES>
0

> <PUBCHEM_HEAVY_ATOM_COUNT>
11

> <PUBCHEM_ATOM_DEF_STEREO_COUNT>
0

> <PUBCHEM_ATOM_UDEF_STEREO_COUNT>
0

> <PUBCHEM_BOND_DEF_STEREO_COUNT>
0

> <PUBCHEM_BOND_UDEF_STEREO_COUNT>
0

> <PUBCHEM_ISOTOPIC_ATOM_COUNT>
0

> <PUBCHEM_COMPONENT_COUNT>
1

> <PUBCHEM_CACTVS_TAUTO_COUNT>
1

> <PUBCHEM_CONFORMER_ID>
0000EEB900000001

> <PUBCHEM_MMFF94_ENERGY>
1.9241

> <PUBCHEM_FEATURE_SELFOVERLAP>
0

> <PUBCHEM_SHAPE_FINGERPRINT>
137420 1 11162106208261908972
14128692 85 17840582922569837623
16945 1 18130496492252153073
18185500 45 18271245031437183383
21040471 1 18201715094424902735
21922407 69 17700988883473625283
24536 1 18124863565428957244
29004967 10 18337967747806947848
369184 2 16877939434353722168
5084963 1 17130429201296552162

> <PUBCHEM_SHAPE_MULTIPOLES>
177.33
2.46
1.43
1.14
0.05
0.16
-0.14
0.34
-0.02
-0.29
0.21
-0.01
0
-0.16

> <PUBCHEM_SHAPE_SELFOVERLAP>
352.134

> <PUBCHEM_SHAPE_VOLUME>
107.9

> <PUBCHEM_COORDINATE_TYPE>
2
5
10

$$$$
