67906
  -OEChem-07262316193D

  9  8  0     0  0  0  0  0  0999 V2000
    0.2890   -1.3448    1.0851 F   0  0  0  0  0  0  0  0  0  0  0  0
    0.2907   -1.3412   -1.0932 F   0  0  0  0  0  0  0  0  0  0  0  0
   -0.9859    1.1205   -1.0893 F   0  0  0  0  0  0  0  0  0  0  0  0
   -0.9656    1.1146    1.0911 F   0  0  0  0  0  0  0  0  0  0  0  0
   -2.0569   -0.4330    0.0101 F   0  0  0  0  0  0  0  0  0  0  0  0
    2.5234    0.8558    0.0015 N   0  0  0  0  0  0  0  0  0  0  0  0
    0.3024   -0.5337   -0.0027 C   0  0  0  0  0  0  0  0  0  0  0  0
   -0.9366    0.3208   -0.0022 C   0  0  0  0  0  0  0  0  0  0  0  0
    1.5395    0.2410   -0.0003 C   0  0  0  0  0  0  0  0  0  0  0  0
  1  7  1  0  0  0  0
  2  7  1  0  0  0  0
  3  8  1  0  0  0  0
  4  8  1  0  0  0  0
  5  8  1  0  0  0  0
  6  9  3  0  0  0  0
  7  8  1  0  0  0  0
  7  9  1  0  0  0  0
M  END
> <PUBCHEM_COMPOUND_CID>
67906

> <PUBCHEM_CONFORMER_RMSD>
0.4

> <PUBCHEM_CONFORMER_DIVERSEORDER>
1

> <PUBCHEM_MMFF94_PARTIAL_CHARGES>
9
1 -0.34
2 -0.34
3 -0.34
4 -0.34
5 -0.34
6 -0.56
7 0.88
8 1.02
9 0.36

> <PUBCHEM_EFFECTIVE_ROTOR_COUNT>
1

> <PUBCHEM_PHARMACOPHORE_FEATURES>
1
1 6 acceptor

> <PUBCHEM_HEAVY_ATOM_COUNT>
9

> <PUBCHEM_ATOM_DEF_STEREO_COUNT>
0

> <PUBCHEM_ATOM_UDEF_STEREO_COUNT>
0

> <PUBCHEM_BOND_DEF_STEREO_COUNT>
0

> <PUBCHEM_BOND_UDEF_STEREO_COUNT>
0

> <PUBCHEM_ISOTOPIC_ATOM_COUNT>
0

> <PUBCHEM_COMPONENT_COUNT>
1

> <PUBCHEM_CACTVS_TAUTO_COUNT>
1

> <PUBCHEM_CONFORMER_ID>
0001094200000001

> <PUBCHEM_MMFF94_ENERGY>
-1.1398

> <PUBCHEM_FEATURE_SELFOVERLAP>
5.074

> <PUBCHEM_SHAPE_FINGERPRINT>
137420 1 10368835330931603414
16714656 1 18059011820939224534
20096714 4 18341333292928374392
21040471 1 18410012152179703108
24536 1 17770771325907814859
29004967 10 17275111677290336090
5084963 1 18335421261929348772

> <PUBCHEM_SHAPE_MULTIPOLES>
143.87
2.28
1.26
0.97
0.87
0.16
0
-0.66
0
-0.03
0
-0.16
0.05
0

> <PUBCHEM_SHAPE_SELFOVERLAP>
288.322

> <PUBCHEM_SHAPE_VOLUME>
83.4

> <PUBCHEM_COORDINATE_TYPE>
2
5
10

$$$$
