12633773
  -OEChem-07262316203D

 12 11  0     0  0  0  0  0  0999 V2000
   -0.0004   -0.2030   -1.7418 F   0  0  0  0  0  0  0  0  0  0  0  0
    2.3734   -0.1262   -0.4146 F   0  0  0  0  0  0  0  0  0  0  0  0
    1.2694    1.7482   -0.2425 F   0  0  0  0  0  0  0  0  0  0  0  0
    1.3656    0.3816    1.4506 F   0  0  0  0  0  0  0  0  0  0  0  0
   -1.3643    0.3907    1.4519 F   0  0  0  0  0  0  0  0  0  0  0  0
   -2.3640   -0.1300   -0.4118 F   0  0  0  0  0  0  0  0  0  0  0  0
   -1.2748    1.7519   -0.2517 F   0  0  0  0  0  0  0  0  0  0  0  0
   -0.0069   -2.7867    0.3174 N   0  0  0  0  0  0  0  0  0  0  0  0
    0.0003   -0.2498   -0.3781 C   0  0  0  0  0  0  0  0  0  0  0  0
    1.2626    0.4415    0.1041 C   0  0  0  0  0  0  0  0  0  0  0  0
   -1.2573    0.4490    0.1055 C   0  0  0  0  0  0  0  0  0  0  0  0
   -0.0036   -1.6673    0.0111 C   0  0  0  0  0  0  0  0  0  0  0  0
  1  9  1  0  0  0  0
  2 10  1  0  0  0  0
  3 10  1  0  0  0  0
  4 10  1  0  0  0  0
  5 11  1  0  0  0  0
  6 11  1  0  0  0  0
  7 11  1  0  0  0  0
  8 12  3  0  0  0  0
  9 10  1  0  0  0  0
  9 11  1  0  0  0  0
  9 12  1  0  0  0  0
M  END
> <PUBCHEM_COMPOUND_CID>
12633773

> <PUBCHEM_CONFORMER_RMSD>
0.6

> <PUBCHEM_CONFORMER_DIVERSEORDER>
1

> <PUBCHEM_MMFF94_PARTIAL_CHARGES>
12
1 -0.34
10 1.02
11 1.02
12 0.36
2 -0.34
3 -0.34
4 -0.34
5 -0.34
6 -0.34
7 -0.34
8 -0.56
9 0.54

> <PUBCHEM_EFFECTIVE_ROTOR_COUNT>
2

> <PUBCHEM_PHARMACOPHORE_FEATURES>
1
1 8 acceptor

> <PUBCHEM_HEAVY_ATOM_COUNT>
12

> <PUBCHEM_ATOM_DEF_STEREO_COUNT>
0

> <PUBCHEM_ATOM_UDEF_STEREO_COUNT>
0

> <PUBCHEM_BOND_DEF_STEREO_COUNT>
0

> <PUBCHEM_BOND_UDEF_STEREO_COUNT>
0

> <PUBCHEM_ISOTOPIC_ATOM_COUNT>
0

> <PUBCHEM_COMPONENT_COUNT>
1

> <PUBCHEM_CACTVS_TAUTO_COUNT>
1

> <PUBCHEM_CONFORMER_ID>
00C0C6AD00000001

> <PUBCHEM_MMFF94_ENERGY>
5.8764

> <PUBCHEM_FEATURE_SELFOVERLAP>
5.074

> <PUBCHEM_SHAPE_FINGERPRINT>
12423570 1 10065178935449041183
13024252 1 14491006338842968928
137420 1 14229173342587846582
16945 1 18411699889353371550
21040471 1 18339073890843155652
21922407 69 17536291971676433072
5084963 1 18202282506680701901

> <PUBCHEM_SHAPE_MULTIPOLES>
191.06
2.14
1.96
1.1
0.01
1.26
-0.04
-0.64
-0.04
-0.01
-0.12
0
-0.07
0

> <PUBCHEM_SHAPE_SELFOVERLAP>
394.89

> <PUBCHEM_SHAPE_VOLUME>
108.4

> <PUBCHEM_COORDINATE_TYPE>
2
5
10

$$$$
