12545136
  -OEChem-07262316203D

 11 10  0     0  0  0  0  0  0999 V2000
    1.6033   -0.6874   -0.0315 F   0  0  0  0  0  0  0  0  0  0  0  0
    0.6336    1.2556   -0.1582 F   0  0  0  0  0  0  0  0  0  0  0  0
   -0.7296   -0.6584   -0.2540 C   0  0  0  0  0  0  0  0  0  0  0  0
    0.4965    0.0027    0.3418 C   0  0  0  0  0  0  0  0  0  0  0  0
   -2.0037    0.0874    0.1019 C   0  0  0  0  0  0  0  0  0  0  0  0
   -0.6264   -0.6930   -1.3445 H   0  0  0  0  0  0  0  0  0  0  0  0
   -0.7917   -1.6962    0.0912 H   0  0  0  0  0  0  0  0  0  0  0  0
    0.4633    0.0557    1.4335 H   0  0  0  0  0  0  0  0  0  0  0  0
   -2.8715   -0.4122   -0.3398 H   0  0  0  0  0  0  0  0  0  0  0  0
   -2.1473    0.1219    1.1866 H   0  0  0  0  0  0  0  0  0  0  0  0
   -1.9768    1.1153   -0.2739 H   0  0  0  0  0  0  0  0  0  0  0  0
  1  4  1  0  0  0  0
  2  4  1  0  0  0  0
  3  4  1  0  0  0  0
  3  5  1  0  0  0  0
  3  6  1  0  0  0  0
  3  7  1  0  0  0  0
  4  8  1  0  0  0  0
  5  9  1  0  0  0  0
  5 10  1  0  0  0  0
  5 11  1  0  0  0  0
M  END
> <PUBCHEM_COMPOUND_CID>
12545136

> <PUBCHEM_CONFORMER_RMSD>
0.4

> <PUBCHEM_CONFORMER_DIVERSEORDER>
1
3
2

> <PUBCHEM_MMFF94_PARTIAL_CHARGES>
3
1 -0.34
2 -0.34
4 0.68

> <PUBCHEM_EFFECTIVE_ROTOR_COUNT>
1

> <PUBCHEM_PHARMACOPHORE_FEATURES>
1
1 5 hydrophobe

> <PUBCHEM_HEAVY_ATOM_COUNT>
5

> <PUBCHEM_ATOM_DEF_STEREO_COUNT>
0

> <PUBCHEM_ATOM_UDEF_STEREO_COUNT>
0

> <PUBCHEM_BOND_DEF_STEREO_COUNT>
0

> <PUBCHEM_BOND_UDEF_STEREO_COUNT>
0

> <PUBCHEM_ISOTOPIC_ATOM_COUNT>
0

> <PUBCHEM_COMPONENT_COUNT>
1

> <PUBCHEM_CACTVS_TAUTO_COUNT>
1

> <PUBCHEM_CONFORMER_ID>
00BF6C7000000001

> <PUBCHEM_MMFF94_ENERGY>
-0.3943

> <PUBCHEM_FEATURE_SELFOVERLAP>
5.074

> <PUBCHEM_SHAPE_FINGERPRINT>
139733 1 9223219763147690410
16714656 1 18268998587489790830
20096714 4 18339081613336843633
21015797 1 8860460107940611690
24536 1 18265881635355070339
29004967 10 18334017163826339242
5460574 1 8502653714215263275
5943 1 13939683046480551384

> <PUBCHEM_SHAPE_MULTIPOLES>
88.35
2.1
0.98
0.62
0.61
0.18
-0.02
-0.11
-0.06
-0.21
0.07
0.05
-0.01
-0.05

> <PUBCHEM_SHAPE_SELFOVERLAP>
152.214

> <PUBCHEM_SHAPE_VOLUME>
59.8

> <PUBCHEM_COORDINATE_TYPE>
2
5
10

$$$$
