164598
  -OEChem-07262316203D

 11 10  0     1  0  0  0  0  0999 V2000
    0.6733   -1.5154   -0.0834 F   0  0  0  0  0  0  0  0  0  0  0  0
   -1.3043    1.3315    0.5261 F   0  0  0  0  0  0  0  0  0  0  0  0
   -1.1381    0.1594   -1.3079 F   0  0  0  0  0  0  0  0  0  0  0  0
   -1.8578   -0.7806    0.5222 F   0  0  0  0  0  0  0  0  0  0  0  0
    2.7018    0.2726    0.1594 F   0  0  0  0  0  0  0  0  0  0  0  0
    0.4404   -0.2575    0.3872 C   0  0  2  0  0  0  0  0  0  0  0  0
   -0.9772    0.1188    0.0327 C   0  0  0  0  0  0  0  0  0  0  0  0
    1.4618    0.6711   -0.2362 C   0  0  0  0  0  0  0  0  0  0  0  0
    0.5725   -0.2937    1.4726 H   0  0  0  0  0  0  0  0  0  0  0  0
    1.3212    1.7073    0.0835 H   0  0  0  0  0  0  0  0  0  0  0  0
    1.4380    0.6191   -1.3283 H   0  0  0  0  0  0  0  0  0  0  0  0
  1  6  1  0  0  0  0
  2  7  1  0  0  0  0
  3  7  1  0  0  0  0
  4  7  1  0  0  0  0
  5  8  1  0  0  0  0
  6  7  1  0  0  0  0
  6  8  1  0  0  0  0
  6  9  1  0  0  0  0
  8 10  1  0  0  0  0
  8 11  1  0  0  0  0
M  END
> <PUBCHEM_COMPOUND_CID>
164598

> <PUBCHEM_CONFORMER_RMSD>
0.4

> <PUBCHEM_CONFORMER_DIVERSEORDER>
1
5
3
6
2
4

> <PUBCHEM_MMFF94_PARTIAL_CHARGES>
8
1 -0.34
2 -0.34
3 -0.34
4 -0.34
5 -0.34
6 0.34
7 1.02
8 0.34

> <PUBCHEM_EFFECTIVE_ROTOR_COUNT>
2

> <PUBCHEM_PHARMACOPHORE_FEATURES>
0

> <PUBCHEM_HEAVY_ATOM_COUNT>
8

> <PUBCHEM_ATOM_DEF_STEREO_COUNT>
0

> <PUBCHEM_ATOM_UDEF_STEREO_COUNT>
1

> <PUBCHEM_BOND_DEF_STEREO_COUNT>
0

> <PUBCHEM_BOND_UDEF_STEREO_COUNT>
0

> <PUBCHEM_ISOTOPIC_ATOM_COUNT>
0

> <PUBCHEM_COMPONENT_COUNT>
1

> <PUBCHEM_CACTVS_TAUTO_COUNT>
1

> <PUBCHEM_CONFORMER_ID>
000282F600000001

> <PUBCHEM_MMFF94_ENERGY>
2.1426

> <PUBCHEM_FEATURE_SELFOVERLAP>
0

> <PUBCHEM_SHAPE_FINGERPRINT>
137420 1 14377030521173491837
16714656 1 18265902534544606850
20096714 4 18269560450774281672
21040471 1 18266467498705970664
24536 1 18265603308309754426
29004967 10 18341621446341814674
5084963 1 17749669687884464904
5943 1 15261446497262290823

> <PUBCHEM_SHAPE_MULTIPOLES>
128.27
2.53
1.12
0.81
1.16
0.14
0.19
-0.25
-0.16
-0.1
-0.08
-0.25
-0.07
-0.01

> <PUBCHEM_SHAPE_SELFOVERLAP>
245.979

> <PUBCHEM_SHAPE_VOLUME>
79.3

> <PUBCHEM_COORDINATE_TYPE>
2
5
10

$$$$
