92758
  -OEChem-07262316203D

  8  7  0     1  0  0  0  0  0999 V2000
    2.0152   -0.6482   -0.2818 Cl  0  0  0  0  0  0  0  0  0  0  0  0
    0.5928    1.2465    0.6945 F   0  0  0  0  0  0  0  0  0  0  0  0
   -1.7375    0.4629   -0.4239 F   0  0  0  0  0  0  0  0  0  0  0  0
   -0.7906   -1.0888    0.7731 F   0  0  0  0  0  0  0  0  0  0  0  0
    0.6000    0.4138   -0.3808 C   0  0  2  0  0  0  0  0  0  0  0  0
   -0.6799   -0.3861   -0.3812 C   0  0  0  0  0  0  0  0  0  0  0  0
    0.6810    1.0322   -1.2788 H   0  0  0  0  0  0  0  0  0  0  0  0
   -0.7508   -1.0774   -1.2258 H   0  0  0  0  0  0  0  0  0  0  0  0
  1  5  1  0  0  0  0
  2  5  1  0  0  0  0
  3  6  1  0  0  0  0
  4  6  1  0  0  0  0
  5  6  1  0  0  0  0
  5  7  1  0  0  0  0
  6  8  1  0  0  0  0
M  END
> <PUBCHEM_COMPOUND_CID>
92758

> <PUBCHEM_CONFORMER_RMSD>
0.4

> <PUBCHEM_CONFORMER_DIVERSEORDER>
1
2
5
3
4
6

> <PUBCHEM_MMFF94_PARTIAL_CHARGES>
6
1 -0.29
2 -0.34
3 -0.34
4 -0.34
5 0.63
6 0.68

> <PUBCHEM_EFFECTIVE_ROTOR_COUNT>
1

> <PUBCHEM_PHARMACOPHORE_FEATURES>
0

> <PUBCHEM_HEAVY_ATOM_COUNT>
6

> <PUBCHEM_ATOM_DEF_STEREO_COUNT>
0

> <PUBCHEM_ATOM_UDEF_STEREO_COUNT>
1

> <PUBCHEM_BOND_DEF_STEREO_COUNT>
0

> <PUBCHEM_BOND_UDEF_STEREO_COUNT>
0

> <PUBCHEM_ISOTOPIC_ATOM_COUNT>
0

> <PUBCHEM_COMPONENT_COUNT>
1

> <PUBCHEM_CACTVS_TAUTO_COUNT>
1

> <PUBCHEM_CONFORMER_ID>
00016A5600000001

> <PUBCHEM_MMFF94_ENERGY>
-0.8335

> <PUBCHEM_FEATURE_SELFOVERLAP>
0

> <PUBCHEM_SHAPE_FINGERPRINT>
139733 1 7925907067545559542
16714656 1 17386008325562705990
20096714 4 18411692197272711797
21015797 1 9435683896793638213
24536 1 17824533304025719380
29004967 10 18131071528264728782
5943 1 10837298030912381260

> <PUBCHEM_SHAPE_MULTIPOLES>
103.53
2.1
1.09
0.79
0.53
0.1
0.04
-0.33
-0.28
0.05
0.24
-0.04
-0.02
0.18

> <PUBCHEM_SHAPE_SELFOVERLAP>
180.759

> <PUBCHEM_SHAPE_VOLUME>
69.3

> <PUBCHEM_COORDINATE_TYPE>
2
5
10

$$$$
