136279
  -OEChem-07262316203D

 13 12  0     0  0  0  0  0  0999 V2000
   -2.2647   -0.5322    0.4730 F   0  0  0  0  0  0  0  0  0  0  0  0
   -1.7172    1.5681    0.5810 F   0  0  0  0  0  0  0  0  0  0  0  0
   -1.4329    0.4657   -1.2850 F   0  0  0  0  0  0  0  0  0  0  0  0
    0.7267    2.2095    0.5579 F   0  0  0  0  0  0  0  0  0  0  0  0
    2.2350    0.6461    0.4965 F   0  0  0  0  0  0  0  0  0  0  0  0
    1.0473    1.0809   -1.2863 F   0  0  0  0  0  0  0  0  0  0  0  0
    1.5931   -1.6951    0.4722 F   0  0  0  0  0  0  0  0  0  0  0  0
    0.3129   -1.4730   -1.2854 F   0  0  0  0  0  0  0  0  0  0  0  0
   -0.4996   -2.2708    0.5802 F   0  0  0  0  0  0  0  0  0  0  0  0
   -0.0001    0.0001    0.5052 N   0  0  0  0  0  0  0  0  0  0  0  0
   -1.3402    0.3723    0.0637 C   0  0  0  0  0  0  0  0  0  0  0  0
    0.9921    0.9747    0.0636 C   0  0  0  0  0  0  0  0  0  0  0  0
    0.3477   -1.3464    0.0633 C   0  0  0  0  0  0  0  0  0  0  0  0
  1 11  1  0  0  0  0
  2 11  1  0  0  0  0
  3 11  1  0  0  0  0
  4 12  1  0  0  0  0
  5 12  1  0  0  0  0
  6 12  1  0  0  0  0
  7 13  1  0  0  0  0
  8 13  1  0  0  0  0
  9 13  1  0  0  0  0
 10 11  1  0  0  0  0
 10 12  1  0  0  0  0
 10 13  1  0  0  0  0
M  END
> <PUBCHEM_COMPOUND_CID>
136279

> <PUBCHEM_CONFORMER_RMSD>
0.6

> <PUBCHEM_CONFORMER_DIVERSEORDER>
1

> <PUBCHEM_MMFF94_PARTIAL_CHARGES>
13
1 -0.34
10 -0.81
11 1.29
12 1.29
13 1.29
2 -0.34
3 -0.34
4 -0.34
5 -0.34
6 -0.34
7 -0.34
8 -0.34
9 -0.34

> <PUBCHEM_EFFECTIVE_ROTOR_COUNT>
3

> <PUBCHEM_PHARMACOPHORE_FEATURES>
1
1 10 cation

> <PUBCHEM_HEAVY_ATOM_COUNT>
13

> <PUBCHEM_ATOM_DEF_STEREO_COUNT>
0

> <PUBCHEM_ATOM_UDEF_STEREO_COUNT>
0

> <PUBCHEM_BOND_DEF_STEREO_COUNT>
0

> <PUBCHEM_BOND_UDEF_STEREO_COUNT>
0

> <PUBCHEM_ISOTOPIC_ATOM_COUNT>
0

> <PUBCHEM_COMPONENT_COUNT>
1

> <PUBCHEM_CACTVS_TAUTO_COUNT>
1

> <PUBCHEM_CONFORMER_ID>
0002145700000001

> <PUBCHEM_MMFF94_ENERGY>
6.7615

> <PUBCHEM_FEATURE_SELFOVERLAP>
5.074

> <PUBCHEM_SHAPE_FINGERPRINT>
12423570 1 9777866153205894118
13024252 1 12615236216201954120
16945 1 18336829813290997994
18185500 45 17761500188054388539
21040471 1 18337962310272985888
2748010 2 18338234847433186138
29004967 10 17685505242835138419
5084963 1 17895751919183909345

> <PUBCHEM_SHAPE_MULTIPOLES>
197.09
2.14
2.14
0.98
0.36
0.39
-0.36
-0.37
0.28
-0.37
0.29
0.02
-0.02
0

> <PUBCHEM_SHAPE_SELFOVERLAP>
405.494

> <PUBCHEM_SHAPE_VOLUME>
113

> <PUBCHEM_COORDINATE_TYPE>
2
5
10

$$$$
