136280
  -OEChem-07262316203D

 13 12  0     0  0  0  0  0  0999 V2000
   -0.0018   -0.0006   -0.7587 P   0  0  0  0  0  0  0  0  0  0  0  0
   -0.3841   -2.4548   -0.3764 F   0  0  0  0  0  0  0  0  0  0  0  0
    0.5717   -1.3178    1.2658 F   0  0  0  0  0  0  0  0  0  0  0  0
    1.7169   -1.7815   -0.5672 F   0  0  0  0  0  0  0  0  0  0  0  0
   -1.9934    1.4693   -0.5706 F   0  0  0  0  0  0  0  0  0  0  0  0
   -2.3574   -0.7058   -0.4162 F   0  0  0  0  0  0  0  0  0  0  0  0
   -1.4288    0.3824    1.2742 F   0  0  0  0  0  0  0  0  0  0  0  0
    2.2992    0.8564   -0.3941 F   0  0  0  0  0  0  0  0  0  0  0  0
    0.8808    1.1842    1.2744 F   0  0  0  0  0  0  0  0  0  0  0  0
    0.7029    2.3735   -0.5850 F   0  0  0  0  0  0  0  0  0  0  0  0
    0.5131   -1.5243   -0.0515 C   0  0  0  0  0  0  0  0  0  0  0  0
   -1.5781    0.3134   -0.0484 C   0  0  0  0  0  0  0  0  0  0  0  0
    1.0591    1.2056   -0.0463 C   0  0  0  0  0  0  0  0  0  0  0  0
  1 11  1  0  0  0  0
  1 12  1  0  0  0  0
  1 13  1  0  0  0  0
  2 11  1  0  0  0  0
  3 11  1  0  0  0  0
  4 11  1  0  0  0  0
  5 12  1  0  0  0  0
  6 12  1  0  0  0  0
  7 12  1  0  0  0  0
  8 13  1  0  0  0  0
  9 13  1  0  0  0  0
 10 13  1  0  0  0  0
M  END
> <PUBCHEM_COMPOUND_CID>
136280

> <PUBCHEM_CONFORMER_RMSD>
0.6

> <PUBCHEM_CONFORMER_DIVERSEORDER>
1

> <PUBCHEM_MMFF94_PARTIAL_CHARGES>
13
1 -0.5
10 -0.34
11 1.19
12 1.19
13 1.19
2 -0.34
3 -0.34
4 -0.34
5 -0.34
6 -0.34
7 -0.34
8 -0.34
9 -0.34

> <PUBCHEM_EFFECTIVE_ROTOR_COUNT>
3

> <PUBCHEM_PHARMACOPHORE_FEATURES>
0

> <PUBCHEM_HEAVY_ATOM_COUNT>
13

> <PUBCHEM_ATOM_DEF_STEREO_COUNT>
0

> <PUBCHEM_ATOM_UDEF_STEREO_COUNT>
0

> <PUBCHEM_BOND_DEF_STEREO_COUNT>
0

> <PUBCHEM_BOND_UDEF_STEREO_COUNT>
0

> <PUBCHEM_ISOTOPIC_ATOM_COUNT>
0

> <PUBCHEM_COMPONENT_COUNT>
1

> <PUBCHEM_CACTVS_TAUTO_COUNT>
1

> <PUBCHEM_CONFORMER_ID>
0002145800000001

> <PUBCHEM_MMFF94_ENERGY>
26.2807

> <PUBCHEM_FEATURE_SELFOVERLAP>
0

> <PUBCHEM_SHAPE_FINGERPRINT>
12423570 1 11250364861327196760
13024252 1 15579472495981327632
137420 1 13161255082003437990
16945 1 18267307705988546702
18185500 45 17981049613300443087
21040471 1 18267296723730939876
21922407 69 15334279994164049687
241688 4 18338518521422589834
2748010 2 18337952285813919054
5084963 1 18200034091396347461

> <PUBCHEM_SHAPE_MULTIPOLES>
205.92
2.31
2.31
1.01
0.62
0.45
0.3
-0.39
-0.26
-0.6
-0.27
0
-0.05
0.02

> <PUBCHEM_SHAPE_SELFOVERLAP>
409.739

> <PUBCHEM_SHAPE_VOLUME>
123.1

> <PUBCHEM_COORDINATE_TYPE>
2
5
10

$$$$
