594043
  -OEChem-07262316203D

  9  8  0     0  0  0  0  0  0999 V2000
   -1.4277   -1.3257   -0.2340 F   0  0  0  0  0  0  0  0  0  0  0  0
   -2.1281    0.5472    0.6192 F   0  0  0  0  0  0  0  0  0  0  0  0
    0.2833    1.8478   -0.2242 F   0  0  0  0  0  0  0  0  0  0  0  0
    2.3760    0.2676    0.1895 F   0  0  0  0  0  0  0  0  0  0  0  0
    0.9899   -1.6059    0.1123 F   0  0  0  0  0  0  0  0  0  0  0  0
   -1.3185    0.0249   -0.3402 C   0  0  0  0  0  0  0  0  0  0  0  0
    0.0793    0.5109   -0.1664 C   0  0  0  0  0  0  0  0  0  0  0  0
    1.1458   -0.2668    0.0438 C   0  0  0  0  0  0  0  0  0  0  0  0
   -1.7118    0.3217   -1.3162 H   0  0  0  0  0  0  0  0  0  0  0  0
  1  6  1  0  0  0  0
  2  6  1  0  0  0  0
  3  7  1  0  0  0  0
  4  8  1  0  0  0  0
  5  8  1  0  0  0  0
  6  7  1  0  0  0  0
  6  9  1  0  0  0  0
  7  8  2  0  0  0  0
M  END
> <PUBCHEM_COMPOUND_CID>
594043

> <PUBCHEM_CONFORMER_RMSD>
0.4

> <PUBCHEM_CONFORMER_DIVERSEORDER>
1
3
2
4

> <PUBCHEM_MMFF94_PARTIAL_CHARGES>
8
1 -0.34
2 -0.34
3 -0.15
4 -0.15
5 -0.15
6 0.82
7 0.01
8 0.3

> <PUBCHEM_EFFECTIVE_ROTOR_COUNT>
1

> <PUBCHEM_PHARMACOPHORE_FEATURES>
0

> <PUBCHEM_HEAVY_ATOM_COUNT>
8

> <PUBCHEM_ATOM_DEF_STEREO_COUNT>
0

> <PUBCHEM_ATOM_UDEF_STEREO_COUNT>
0

> <PUBCHEM_BOND_DEF_STEREO_COUNT>
0

> <PUBCHEM_BOND_UDEF_STEREO_COUNT>
0

> <PUBCHEM_ISOTOPIC_ATOM_COUNT>
0

> <PUBCHEM_COMPONENT_COUNT>
1

> <PUBCHEM_CACTVS_TAUTO_COUNT>
1

> <PUBCHEM_CONFORMER_ID>
0009107B00000001

> <PUBCHEM_MMFF94_ENERGY>
-0.1756

> <PUBCHEM_FEATURE_SELFOVERLAP>
0

> <PUBCHEM_SHAPE_FINGERPRINT>
16714656 1 18339648845356737534
18185500 45 18411416228322722743
20096714 4 18340491165631652957
21040471 1 18340208483753288421
29004967 10 18114471079991020361

> <PUBCHEM_SHAPE_MULTIPOLES>
128.27
2.4
1.43
0.61
0.11
0
0
-0.09
0.32
0.07
-0.07
-0.12
0.03
-0.13

> <PUBCHEM_SHAPE_SELFOVERLAP>
248.139

> <PUBCHEM_SHAPE_VOLUME>
76.5

> <PUBCHEM_COORDINATE_TYPE>
2
5
10

$$$$
