14512801
  -OEChem-07262316203D

 14 13  0     0  0  0  0  0  0999 V2000
   -1.8716   -0.9886    0.0568 F   0  0  0  0  0  0  0  0  0  0  0  0
   -1.1141    0.6844   -1.1190 F   0  0  0  0  0  0  0  0  0  0  0  0
   -1.0850    0.7863    1.0591 F   0  0  0  0  0  0  0  0  0  0  0  0
    0.4705   -0.6509    0.0018 C   0  0  0  0  0  0  0  0  0  0  0  0
    1.5637    0.4156   -0.0161 C   0  0  0  0  0  0  0  0  0  0  0  0
   -0.9136   -0.0388    0.0047 C   0  0  0  0  0  0  0  0  0  0  0  0
    2.9501   -0.2080    0.0127 C   0  0  0  0  0  0  0  0  0  0  0  0
    0.5738   -1.3058   -0.8710 H   0  0  0  0  0  0  0  0  0  0  0  0
    0.5833   -1.2802    0.8922 H   0  0  0  0  0  0  0  0  0  0  0  0
    1.4530    1.0798    0.8488 H   0  0  0  0  0  0  0  0  0  0  0  0
    1.4661    1.0352   -0.9151 H   0  0  0  0  0  0  0  0  0  0  0  0
    3.0922   -0.8070    0.9179 H   0  0  0  0  0  0  0  0  0  0  0  0
    3.1071   -0.8552   -0.8562 H   0  0  0  0  0  0  0  0  0  0  0  0
    3.7171    0.5726   -0.0020 H   0  0  0  0  0  0  0  0  0  0  0  0
  1  6  1  0  0  0  0
  2  6  1  0  0  0  0
  3  6  1  0  0  0  0
  4  5  1  0  0  0  0
  4  6  1  0  0  0  0
  4  8  1  0  0  0  0
  4  9  1  0  0  0  0
  5  7  1  0  0  0  0
  5 10  1  0  0  0  0
  5 11  1  0  0  0  0
  7 12  1  0  0  0  0
  7 13  1  0  0  0  0
  7 14  1  0  0  0  0
M  END
> <PUBCHEM_COMPOUND_CID>
14512801

> <PUBCHEM_CONFORMER_RMSD>
0.4

> <PUBCHEM_CONFORMER_DIVERSEORDER>
1
3
2

> <PUBCHEM_MMFF94_PARTIAL_CHARGES>
4
1 -0.34
2 -0.34
3 -0.34
6 1.02

> <PUBCHEM_EFFECTIVE_ROTOR_COUNT>
2

> <PUBCHEM_PHARMACOPHORE_FEATURES>
1
1 7 hydrophobe

> <PUBCHEM_HEAVY_ATOM_COUNT>
7

> <PUBCHEM_ATOM_DEF_STEREO_COUNT>
0

> <PUBCHEM_ATOM_UDEF_STEREO_COUNT>
0

> <PUBCHEM_BOND_DEF_STEREO_COUNT>
0

> <PUBCHEM_BOND_UDEF_STEREO_COUNT>
0

> <PUBCHEM_ISOTOPIC_ATOM_COUNT>
0

> <PUBCHEM_COMPONENT_COUNT>
1

> <PUBCHEM_CACTVS_TAUTO_COUNT>
1

> <PUBCHEM_CONFORMER_ID>
00DD72A100000001

> <PUBCHEM_MMFF94_ENERGY>
2.1911

> <PUBCHEM_FEATURE_SELFOVERLAP>
5.074

> <PUBCHEM_SHAPE_FINGERPRINT>
16714656 1 18113900493712412118
20096714 4 17988370260586611728
24536 1 18130503050704065810
29004967 10 17132122363636453074
5084963 1 18334012821941300930
5460574 1 9367352530962467210
5943 1 11966823337209262157

> <PUBCHEM_SHAPE_MULTIPOLES>
122.24
3.21
0.9
0.82
2.17
0.06
0.02
0.27
-0.02
-0.23
-0.02
-0.27
-0.19
0

> <PUBCHEM_SHAPE_SELFOVERLAP>
223.024

> <PUBCHEM_SHAPE_VOLUME>
79.3

> <PUBCHEM_COORDINATE_TYPE>
2
5
10

$$$$
