5709600
  -OEChem-07262316203D

  9  8  0     0  0  0  0  0  0999 V2000
   -1.5412   -1.5382   -0.0051 Cl  0  0  0  0  0  0  0  0  0  0  0  0
    2.1205    0.9746    0.0112 F   0  0  0  0  0  0  0  0  0  0  0  0
    1.2769   -0.7310    1.0709 F   0  0  0  0  0  0  0  0  0  0  0  0
    1.2413   -0.6757   -1.1060 F   0  0  0  0  0  0  0  0  0  0  0  0
   -2.5507    0.9137    0.0090 F   0  0  0  0  0  0  0  0  0  0  0  0
    1.0922    0.0887    0.0056 C   0  0  0  0  0  0  0  0  0  0  0  0
   -0.2229    0.7870    0.0092 C   0  0  0  0  0  0  0  0  0  0  0  0
   -1.4160    0.1810    0.0052 C   0  0  0  0  0  0  0  0  0  0  0  0
   -0.2007    1.8735    0.0156 H   0  0  0  0  0  0  0  0  0  0  0  0
  1  8  1  0  0  0  0
  2  6  1  0  0  0  0
  3  6  1  0  0  0  0
  4  6  1  0  0  0  0
  5  8  1  0  0  0  0
  6  7  1  0  0  0  0
  7  8  2  0  0  0  0
  7  9  1  0  0  0  0
M  END
> <PUBCHEM_COMPOUND_CID>
5709600

> <PUBCHEM_CONFORMER_RMSD>
0.4

> <PUBCHEM_CONFORMER_DIVERSEORDER>
1

> <PUBCHEM_MMFF94_PARTIAL_CHARGES>
9
1 -0.14
2 -0.34
3 -0.34
4 -0.34
5 -0.15
6 1.16
7 -0.29
8 0.29
9 0.15

> <PUBCHEM_EFFECTIVE_ROTOR_COUNT>
1

> <PUBCHEM_PHARMACOPHORE_FEATURES>
0

> <PUBCHEM_HEAVY_ATOM_COUNT>
8

> <PUBCHEM_ATOM_DEF_STEREO_COUNT>
0

> <PUBCHEM_ATOM_UDEF_STEREO_COUNT>
0

> <PUBCHEM_BOND_DEF_STEREO_COUNT>
1

> <PUBCHEM_BOND_UDEF_STEREO_COUNT>
0

> <PUBCHEM_ISOTOPIC_ATOM_COUNT>
0

> <PUBCHEM_COMPONENT_COUNT>
1

> <PUBCHEM_CACTVS_TAUTO_COUNT>
1

> <PUBCHEM_CONFORMER_ID>
00571F2000000001

> <PUBCHEM_MMFF94_ENERGY>
3.1379

> <PUBCHEM_FEATURE_SELFOVERLAP>
0

> <PUBCHEM_SHAPE_FINGERPRINT>
18185500 45 18114174272112957667
20096714 4 18335422352613710633
21040471 1 18338798910057450117
24536 1 18060137622082918273
29004967 10 17560530589382873578

> <PUBCHEM_SHAPE_MULTIPOLES>
137.41
2.8
1.3
0.79
0.29
0.24
-0.01
-0.32
0.01
0.54
0.01
-0.25
0.19
-0.01

> <PUBCHEM_SHAPE_SELFOVERLAP>
256.887

> <PUBCHEM_SHAPE_VOLUME>
86.4

> <PUBCHEM_COORDINATE_TYPE>
2
5
10

$$$$
6508916
  -OEChem-07262316203D

  9  8  0     0  0  0  0  0  0999 V2000
   -2.9212    0.7753    0.0090 Cl  0  0  0  0  0  0  0  0  0  0  0  0
    2.0691    1.0888    0.0131 F   0  0  0  0  0  0  0  0  0  0  0  0
    1.3757   -0.6847    1.0703 F   0  0  0  0  0  0  0  0  0  0  0  0
    1.3364   -0.6300   -1.1066 F   0  0  0  0  0  0  0  0  0  0  0  0
   -1.3463   -1.3578   -0.0053 F   0  0  0  0  0  0  0  0  0  0  0  0
    1.1213    0.1172    0.0059 C   0  0  0  0  0  0  0  0  0  0  0  0
   -0.2493    0.6991    0.0095 C   0  0  0  0  0  0  0  0  0  0  0  0
   -1.3856   -0.0078    0.0041 C   0  0  0  0  0  0  0  0  0  0  0  0
   -0.3012    1.7856    0.0171 H   0  0  0  0  0  0  0  0  0  0  0  0
  1  8  1  0  0  0  0
  2  6  1  0  0  0  0
  3  6  1  0  0  0  0
  4  6  1  0  0  0  0
  5  8  1  0  0  0  0
  6  7  1  0  0  0  0
  7  8  2  0  0  0  0
  7  9  1  0  0  0  0
M  END
> <PUBCHEM_COMPOUND_CID>
6508916

> <PUBCHEM_CONFORMER_RMSD>
0.4

> <PUBCHEM_CONFORMER_DIVERSEORDER>
1

> <PUBCHEM_MMFF94_PARTIAL_CHARGES>
9
1 -0.14
2 -0.34
3 -0.34
4 -0.34
5 -0.15
6 1.16
7 -0.29
8 0.29
9 0.15

> <PUBCHEM_EFFECTIVE_ROTOR_COUNT>
1

> <PUBCHEM_PHARMACOPHORE_FEATURES>
0

> <PUBCHEM_HEAVY_ATOM_COUNT>
8

> <PUBCHEM_ATOM_DEF_STEREO_COUNT>
0

> <PUBCHEM_ATOM_UDEF_STEREO_COUNT>
0

> <PUBCHEM_BOND_DEF_STEREO_COUNT>
1

> <PUBCHEM_BOND_UDEF_STEREO_COUNT>
0

> <PUBCHEM_ISOTOPIC_ATOM_COUNT>
0

> <PUBCHEM_COMPONENT_COUNT>
1

> <PUBCHEM_CACTVS_TAUTO_COUNT>
1

> <PUBCHEM_CONFORMER_ID>
0063517400000001

> <PUBCHEM_MMFF94_ENERGY>
2.0303

> <PUBCHEM_FEATURE_SELFOVERLAP>
0

> <PUBCHEM_SHAPE_FINGERPRINT>
14390081 3 18271804661481300033
20096714 4 18335422369841046097
21040471 1 18410575054909550693
24536 1 18060137630651773337
29004967 10 17632302297422994096
5084963 1 17702387247653038841
5460574 1 9223230745748422313

> <PUBCHEM_SHAPE_MULTIPOLES>
137.41
3.35
1.1
0.79
1.68
0.11
-0.01
-0.71
0.02
0.03
0.01
-0.29
0.12
-0.01

> <PUBCHEM_SHAPE_SELFOVERLAP>
256.181

> <PUBCHEM_SHAPE_VOLUME>
86.9

> <PUBCHEM_COORDINATE_TYPE>
2
5
10

$$$$
2782297
  -OEChem-07262316203D

  9  8  0     0  0  0  0  0  0999 V2000
   -2.9212    0.7753    0.0090 Cl  0  0  0  0  0  0  0  0  0  0  0  0
    2.0691    1.0888    0.0131 F   0  0  0  0  0  0  0  0  0  0  0  0
    1.3757   -0.6847    1.0703 F   0  0  0  0  0  0  0  0  0  0  0  0
    1.3364   -0.6300   -1.1066 F   0  0  0  0  0  0  0  0  0  0  0  0
   -1.3463   -1.3578   -0.0053 F   0  0  0  0  0  0  0  0  0  0  0  0
    1.1213    0.1172    0.0059 C   0  0  0  0  0  0  0  0  0  0  0  0
   -0.2493    0.6991    0.0095 C   0  0  0  0  0  0  0  0  0  0  0  0
   -1.3856   -0.0078    0.0041 C   0  0  0  0  0  0  0  0  0  0  0  0
   -0.3012    1.7856    0.0171 H   0  0  0  0  0  0  0  0  0  0  0  0
  1  8  1  0  0  0  0
  2  6  1  0  0  0  0
  3  6  1  0  0  0  0
  4  6  1  0  0  0  0
  5  8  1  0  0  0  0
  6  7  1  0  0  0  0
  7  8  2  3  0  0  0
  7  9  1  0  0  0  0
M  END
> <PUBCHEM_COMPOUND_CID>
2782297

> <PUBCHEM_CONFORMER_RMSD>
0.4

> <PUBCHEM_CONFORMER_DIVERSEORDER>
1

> <PUBCHEM_MMFF94_PARTIAL_CHARGES>
9
1 -0.14
2 -0.34
3 -0.34
4 -0.34
5 -0.15
6 1.16
7 -0.29
8 0.29
9 0.15

> <PUBCHEM_EFFECTIVE_ROTOR_COUNT>
1

> <PUBCHEM_PHARMACOPHORE_FEATURES>
0

> <PUBCHEM_HEAVY_ATOM_COUNT>
8

> <PUBCHEM_ATOM_DEF_STEREO_COUNT>
0

> <PUBCHEM_ATOM_UDEF_STEREO_COUNT>
0

> <PUBCHEM_BOND_DEF_STEREO_COUNT>
0

> <PUBCHEM_BOND_UDEF_STEREO_COUNT>
1

> <PUBCHEM_ISOTOPIC_ATOM_COUNT>
0

> <PUBCHEM_COMPONENT_COUNT>
1

> <PUBCHEM_CACTVS_TAUTO_COUNT>
1

> <PUBCHEM_CONFORMER_ID>
002A745900000001

> <PUBCHEM_MMFF94_ENERGY>
2.0303

> <PUBCHEM_FEATURE_SELFOVERLAP>
0

> <PUBCHEM_SHAPE_FINGERPRINT>
14390081 3 18271804661481300033
20096714 4 18335422369841046097
21040471 1 18410575054909550693
24536 1 18060137630651773337
29004967 10 17632302297422994096
5084963 1 17702387247653038841
5460574 1 9223230745748422313

> <PUBCHEM_SHAPE_MULTIPOLES>
137.41
3.35
1.1
0.79
1.68
0.11
-0.01
-0.71
0.02
0.03
0.01
-0.29
0.12
-0.01

> <PUBCHEM_SHAPE_SELFOVERLAP>
256.181

> <PUBCHEM_SHAPE_VOLUME>
86.9

> <PUBCHEM_COORDINATE_TYPE>
2
5
10

$$$$
