136312
  -OEChem-07262316193D

  7  6  0     0  0  0  0  0  0999 V2000
    1.9724    1.1679   -0.0001 F   0  0  0  0  0  0  0  0  0  0  0  0
    1.9716   -1.1683   -0.0006 F   0  0  0  0  0  0  0  0  0  0  0  0
   -1.9721    1.1679   -0.0006 F   0  0  0  0  0  0  0  0  0  0  0  0
   -1.9718   -1.1681   -0.0001 F   0  0  0  0  0  0  0  0  0  0  0  0
    1.2967    0.0000    0.0006 C   0  0  0  0  0  0  0  0  0  0  0  0
   -1.2967    0.0001    0.0003 C   0  0  0  0  0  0  0  0  0  0  0  0
    0.0000    0.0004    0.0005 C   0  0  0  0  0  0  0  0  0  0  0  0
  1  5  1  0  0  0  0
  2  5  1  0  0  0  0
  3  6  1  0  0  0  0
  4  6  1  0  0  0  0
  5  7  2  0  0  0  0
  6  7  2  0  0  0  0
M  END
> <PUBCHEM_COMPOUND_CID>
136312

> <PUBCHEM_CONFORMER_RMSD>
0.4

> <PUBCHEM_CONFORMER_DIVERSEORDER>
1

> <PUBCHEM_MMFF94_PARTIAL_CHARGES>
7
1 -0.15
2 -0.15
3 -0.15
4 -0.15
5 0.36
6 0.36
7 -0.13

> <PUBCHEM_EFFECTIVE_ROTOR_COUNT>
0

> <PUBCHEM_PHARMACOPHORE_FEATURES>
0

> <PUBCHEM_HEAVY_ATOM_COUNT>
7

> <PUBCHEM_ATOM_DEF_STEREO_COUNT>
0

> <PUBCHEM_ATOM_UDEF_STEREO_COUNT>
0

> <PUBCHEM_BOND_DEF_STEREO_COUNT>
0

> <PUBCHEM_BOND_UDEF_STEREO_COUNT>
0

> <PUBCHEM_ISOTOPIC_ATOM_COUNT>
0

> <PUBCHEM_COMPONENT_COUNT>
1

> <PUBCHEM_CACTVS_TAUTO_COUNT>
1

> <PUBCHEM_CONFORMER_ID>
0002147800000001

> <PUBCHEM_MMFF94_ENERGY>
-0.106

> <PUBCHEM_FEATURE_SELFOVERLAP>
0

> <PUBCHEM_SHAPE_FINGERPRINT>
14390081 3 18343299314113497736
20096714 4 18409730625389208257
21040471 1 18266740182053340417
23552423 10 18261114071127076054
24536 1 18338499898439132549
29004967 10 18190184670571655107
5460574 1 9295022261834612737

> <PUBCHEM_SHAPE_MULTIPOLES>
114.96
2.95
1.18
0.54
0
0
0
0
0
0
0
0
0
0

> <PUBCHEM_SHAPE_SELFOVERLAP>
219.497

> <PUBCHEM_SHAPE_VOLUME>
68.9

> <PUBCHEM_COORDINATE_TYPE>
2
5
10

$$$$
