142701
  -OEChem-07262316203D

  9  8  0     0  0  0  0  0  0999 V2000
    2.5286   -0.9348    0.0003 F   0  0  0  0  0  0  0  0  0  0  0  0
    1.6943    0.7679   -1.0999 F   0  0  0  0  0  0  0  0  0  0  0  0
    1.6921    0.7671    1.1006 F   0  0  0  0  0  0  0  0  0  0  0  0
    0.2927   -0.6421   -0.0001 O   0  0  0  0  0  0  0  0  0  0  0  0
   -0.6929    0.4335   -0.0005 O   0  0  0  0  0  0  0  0  0  0  0  0
   -2.1839   -1.2477   -0.0003 O   0  5  0  0  0  0  0  0  0  0  0  0
   -2.8580    0.8827    0.0005 O   0  0  0  0  0  0  0  0  0  0  0  0
   -2.0277   -0.0258   -0.0005 N   0  3  0  0  0  0  0  0  0  0  0  0
    1.5548   -0.0009   -0.0001 C   0  0  0  0  0  0  0  0  0  0  0  0
  1  9  1  0  0  0  0
  2  9  1  0  0  0  0
  3  9  1  0  0  0  0
  4  5  1  0  0  0  0
  4  9  1  0  0  0  0
  5  8  1  0  0  0  0
  6  8  1  0  0  0  0
  7  8  2  0  0  0  0
M  CHG  2   6  -1   8   1
M  END
> <PUBCHEM_COMPOUND_CID>
142701

> <PUBCHEM_CONFORMER_RMSD>
0.6

> <PUBCHEM_CONFORMER_DIVERSEORDER>
1
4
2
3

> <PUBCHEM_MMFF94_PARTIAL_CHARGES>
9
1 -0.34
2 -0.34
3 -0.34
4 -0.28
5 0.01
6 -0.52
7 -0.52
8 1.03
9 1.3

> <PUBCHEM_EFFECTIVE_ROTOR_COUNT>
3

> <PUBCHEM_PHARMACOPHORE_FEATURES>
2
1 6 acceptor
1 7 acceptor

> <PUBCHEM_HEAVY_ATOM_COUNT>
9

> <PUBCHEM_ATOM_DEF_STEREO_COUNT>
0

> <PUBCHEM_ATOM_UDEF_STEREO_COUNT>
0

> <PUBCHEM_BOND_DEF_STEREO_COUNT>
0

> <PUBCHEM_BOND_UDEF_STEREO_COUNT>
0

> <PUBCHEM_ISOTOPIC_ATOM_COUNT>
0

> <PUBCHEM_COMPONENT_COUNT>
1

> <PUBCHEM_CACTVS_TAUTO_COUNT>
1

> <PUBCHEM_CONFORMER_ID>
00022D6D00000001

> <PUBCHEM_MMFF94_ENERGY>
6.1202

> <PUBCHEM_FEATURE_SELFOVERLAP>
10.217

> <PUBCHEM_SHAPE_FINGERPRINT>
12932741 1 17846782939895127981
12932764 1 18059860609703919679
14390081 3 18201995534525712649
21040471 1 18410856606916260226
23552423 10 18187365436816779155
24536 1 18041555944229735543
29004967 10 16200439065279161390
5460574 1 9295289443202425283

> <PUBCHEM_SHAPE_MULTIPOLES>
134.94
4.02
1.03
0.74
1.46
0.14
0
-0.01
0
0.19
0
-0.41
-0.18
0

> <PUBCHEM_SHAPE_SELFOVERLAP>
254.864

> <PUBCHEM_SHAPE_VOLUME>
84.4

> <PUBCHEM_COORDINATE_TYPE>
2
5
10

$$$$
