6329539
  -OEChem-07262316193D

  9  8  0     0  0  0  0  0  0999 V2000
   -1.9342    0.4255    0.0041 F   0  0  0  0  0  0  0  0  0  0  0  0
   -0.7602   -1.0384   -1.1026 F   0  0  0  0  0  0  0  0  0  0  0  0
   -0.7833   -1.0828    1.0758 F   0  0  0  0  0  0  0  0  0  0  0  0
    0.1480    2.0055    0.0079 F   0  0  0  0  0  0  0  0  0  0  0  0
    2.0118   -1.0188    0.0018 F   0  0  0  0  0  0  0  0  0  0  0  0
   -0.7583   -0.2517    0.0031 C   0  0  0  0  0  0  0  0  0  0  0  0
    0.4014    0.6768    0.0053 C   0  0  0  0  0  0  0  0  0  0  0  0
    1.6749    0.2840    0.0046 C   0  0  0  0  0  0  0  0  0  0  0  0
    2.5451    0.9221    0.0060 H   0  0  0  0  0  0  0  0  0  0  0  0
  1  6  1  0  0  0  0
  2  6  1  0  0  0  0
  3  6  1  0  0  0  0
  4  7  1  0  0  0  0
  5  8  1  0  0  0  0
  6  7  1  0  0  0  0
  7  8  2  0  0  0  0
  8  9  1  0  0  0  0
M  END
> <PUBCHEM_COMPOUND_CID>
6329539

> <PUBCHEM_CONFORMER_RMSD>
0.4

> <PUBCHEM_CONFORMER_DIVERSEORDER>
1

> <PUBCHEM_MMFF94_PARTIAL_CHARGES>
8
1 -0.34
2 -0.34
3 -0.34
4 -0.15
5 -0.15
6 1.16
7 0.01
9 0.15

> <PUBCHEM_EFFECTIVE_ROTOR_COUNT>
1

> <PUBCHEM_PHARMACOPHORE_FEATURES>
0

> <PUBCHEM_HEAVY_ATOM_COUNT>
8

> <PUBCHEM_ATOM_DEF_STEREO_COUNT>
0

> <PUBCHEM_ATOM_UDEF_STEREO_COUNT>
0

> <PUBCHEM_BOND_DEF_STEREO_COUNT>
1

> <PUBCHEM_BOND_UDEF_STEREO_COUNT>
0

> <PUBCHEM_ISOTOPIC_ATOM_COUNT>
0

> <PUBCHEM_COMPONENT_COUNT>
1

> <PUBCHEM_CACTVS_TAUTO_COUNT>
1

> <PUBCHEM_CONFORMER_ID>
006094C300000001

> <PUBCHEM_MMFF94_ENERGY>
1.7738

> <PUBCHEM_FEATURE_SELFOVERLAP>
0

> <PUBCHEM_SHAPE_FINGERPRINT>
16714656 1 18269558243250677892
18185500 45 18200306770406383174
20096714 4 18268151048650431277
21040471 1 18410012117535271048
24536 1 17825658125890632124
29004967 10 18336271248778760832
5943 1 13800188916618283191

> <PUBCHEM_SHAPE_MULTIPOLES>
128.27
2.04
1.4
0.78
0.36
0.45
-0.01
-0.34
0.01
0.15
0.01
-0.2
-0.24
0

> <PUBCHEM_SHAPE_SELFOVERLAP>
250.05

> <PUBCHEM_SHAPE_VOLUME>
77.3

> <PUBCHEM_COORDINATE_TYPE>
2
5
10

$$$$
