68973
  -OEChem-07262316193D

  7  6  0     0  0  0  0  0  0999 V2000
   -0.9172    0.0000    0.0000 P   0  0  0  0  0  0  0  0  0  0  0  0
    0.9172    0.0000    0.0000 C   0  0  0  0  0  0  0  0  0  0  0  0
    1.3018   -0.2420    0.9946 H   0  0  0  0  0  0  0  0  0  0  0  0
    1.2999    0.9829   -0.2882 H   0  0  0  0  0  0  0  0  0  0  0  0
    1.2999   -0.7406   -0.7076 H   0  0  0  0  0  0  0  0  0  0  0  0
   -1.1004    0.7976    1.1543 H   0  0  0  0  0  0  0  0  0  0  0  0
   -1.1005   -1.2387    0.6590 H   0  0  0  0  0  0  0  0  0  0  0  0
  1  2  1  0  0  0  0
  1  6  1  0  0  0  0
  1  7  1  0  0  0  0
  2  3  1  0  0  0  0
  2  4  1  0  0  0  0
  2  5  1  0  0  0  0
M  END
> <PUBCHEM_COMPOUND_CID>
68973

> <PUBCHEM_CONFORMER_RMSD>
0.4

> <PUBCHEM_CONFORMER_DIVERSEORDER>
1

> <PUBCHEM_MMFF94_PARTIAL_CHARGES>
4
1 -0.36
2 0.17
6 0.1
7 0.1

> <PUBCHEM_EFFECTIVE_ROTOR_COUNT>
0

> <PUBCHEM_PHARMACOPHORE_FEATURES>
0

> <PUBCHEM_HEAVY_ATOM_COUNT>
2

> <PUBCHEM_ATOM_DEF_STEREO_COUNT>
0

> <PUBCHEM_ATOM_UDEF_STEREO_COUNT>
0

> <PUBCHEM_BOND_DEF_STEREO_COUNT>
0

> <PUBCHEM_BOND_UDEF_STEREO_COUNT>
0

> <PUBCHEM_ISOTOPIC_ATOM_COUNT>
0

> <PUBCHEM_COMPONENT_COUNT>
1

> <PUBCHEM_CACTVS_TAUTO_COUNT>
1

> <PUBCHEM_CONFORMER_ID>
00010D6D00000001

> <PUBCHEM_MMFF94_ENERGY>
0.189

> <PUBCHEM_FEATURE_SELFOVERLAP>
0

> <PUBCHEM_SHAPE_FINGERPRINT>
21015797 1 18122344854593002791
260 1 18410856563992779143

> <PUBCHEM_SHAPE_MULTIPOLES>
45.01
1.49
0.66
0.66
0.03
0
0
0
0
-0.03
0
-0.03
0
0

> <PUBCHEM_SHAPE_SELFOVERLAP>
54.767

> <PUBCHEM_SHAPE_VOLUME>
39

> <PUBCHEM_COORDINATE_TYPE>
2
5
10

$$$$
