68975
  -OEChem-07262316193D

  4  3  0     0  0  0  0  0  0999 V2000
   -1.5692    0.0000    0.0000 Cl  0  0  0  0  0  0  0  0  0  0  0  0
    0.1846   -0.0001    0.0000 C   0  0  0  0  0  0  0  0  0  0  0  0
    1.3846    0.0000    0.0000 C   0  0  0  0  0  0  0  0  0  0  0  0
    2.4495    0.0001    0.0000 H   0  0  0  0  0  0  0  0  0  0  0  0
  1  2  1  0  0  0  0
  2  3  3  0  0  0  0
  3  4  1  0  0  0  0
M  END
> <PUBCHEM_COMPOUND_CID>
68975

> <PUBCHEM_CONFORMER_RMSD>
0.4

> <PUBCHEM_CONFORMER_DIVERSEORDER>
1

> <PUBCHEM_MMFF94_PARTIAL_CHARGES>
4
1 -0.1
2 0.1
3 -0.18
4 0.18

> <PUBCHEM_EFFECTIVE_ROTOR_COUNT>
0

> <PUBCHEM_PHARMACOPHORE_FEATURES>
0

> <PUBCHEM_HEAVY_ATOM_COUNT>
3

> <PUBCHEM_ATOM_DEF_STEREO_COUNT>
0

> <PUBCHEM_ATOM_UDEF_STEREO_COUNT>
0

> <PUBCHEM_BOND_DEF_STEREO_COUNT>
0

> <PUBCHEM_BOND_UDEF_STEREO_COUNT>
0

> <PUBCHEM_ISOTOPIC_ATOM_COUNT>
0

> <PUBCHEM_COMPONENT_COUNT>
1

> <PUBCHEM_CACTVS_TAUTO_COUNT>
1

> <PUBCHEM_CONFORMER_ID>
00010D6F00000001

> <PUBCHEM_MMFF94_ENERGY>
-0.0437

> <PUBCHEM_FEATURE_SELFOVERLAP>
0

> <PUBCHEM_SHAPE_FINGERPRINT>
139733 1 8862940576166047587
20096714 4 18340488970861348568
21015797 1 8861499107895395714
5460574 1 8862947177536056291

> <PUBCHEM_SHAPE_MULTIPOLES>
63.61
2.13
0.63
0.63
0.35
0
0
0
0
0.02
0
0.02
0
0

> <PUBCHEM_SHAPE_SELFOVERLAP>
96.156

> <PUBCHEM_SHAPE_VOLUME>
46.7

> <PUBCHEM_COORDINATE_TYPE>
2
5
10

$$$$
