138749
  -OEChem-07262316203D

  8  7  0     0  0  0  0  0  0999 V2000
   -0.6787   -0.6014    0.0001 O   0  0  0  0  0  0  0  0  0  0  0  0
   -1.5947    0.4842    0.0000 C   0  0  0  0  0  0  0  0  0  0  0  0
    0.5726   -0.1460   -0.0001 C   0  0  0  0  0  0  0  0  0  0  0  0
    1.7008    0.2632    0.0001 C   0  0  0  0  0  0  0  0  0  0  0  0
   -1.4744    1.0992   -0.8991 H   0  0  0  0  0  0  0  0  0  0  0  0
   -1.4744    1.0993    0.8990 H   0  0  0  0  0  0  0  0  0  0  0  0
   -2.6092    0.0747    0.0001 H   0  0  0  0  0  0  0  0  0  0  0  0
    2.7018    0.6265    0.0002 H   0  0  0  0  0  0  0  0  0  0  0  0
  1  2  1  0  0  0  0
  1  3  1  0  0  0  0
  2  5  1  0  0  0  0
  2  6  1  0  0  0  0
  2  7  1  0  0  0  0
  3  4  3  0  0  0  0
  4  8  1  0  0  0  0
M  END
> <PUBCHEM_COMPOUND_CID>
138749

> <PUBCHEM_CONFORMER_RMSD>
0.4

> <PUBCHEM_CONFORMER_DIVERSEORDER>
1

> <PUBCHEM_MMFF94_PARTIAL_CHARGES>
5
1 -0.32
2 0.28
3 0.04
4 -0.18
8 0.18

> <PUBCHEM_EFFECTIVE_ROTOR_COUNT>
0

> <PUBCHEM_PHARMACOPHORE_FEATURES>
1
1 1 acceptor

> <PUBCHEM_HEAVY_ATOM_COUNT>
4

> <PUBCHEM_ATOM_DEF_STEREO_COUNT>
0

> <PUBCHEM_ATOM_UDEF_STEREO_COUNT>
0

> <PUBCHEM_BOND_DEF_STEREO_COUNT>
0

> <PUBCHEM_BOND_UDEF_STEREO_COUNT>
0

> <PUBCHEM_ISOTOPIC_ATOM_COUNT>
0

> <PUBCHEM_COMPONENT_COUNT>
1

> <PUBCHEM_CACTVS_TAUTO_COUNT>
1

> <PUBCHEM_CONFORMER_ID>
00021DFD00000001

> <PUBCHEM_MMFF94_ENERGY>
3.1803

> <PUBCHEM_FEATURE_SELFOVERLAP>
5.074

> <PUBCHEM_SHAPE_FINGERPRINT>
139733 1 9295300434013127778
20096714 4 18408887342988987748
21015797 1 8645040448389621810
5460574 1 9295291637899039040

> <PUBCHEM_SHAPE_MULTIPOLES>
76.45
2.23
0.75
0.59
0.01
0.01
0
0.42
0
0.08
0
-0.02
0.02
0

> <PUBCHEM_SHAPE_SELFOVERLAP>
130.199

> <PUBCHEM_SHAPE_VOLUME>
51.7

> <PUBCHEM_COORDINATE_TYPE>
2
5
10

$$$$
