522282
  -OEChem-07262316203D

 11 10  0     0  0  0  0  0  0999 V2000
    0.6338   -1.0188   -1.0984 F   0  0  0  0  0  0  0  0  0  0  0  0
    0.6165   -1.0565    1.0813 F   0  0  0  0  0  0  0  0  0  0  0  0
   -1.3389    0.9198   -1.0799 F   0  0  0  0  0  0  0  0  0  0  0  0
   -1.8692   -0.9172   -0.0297 F   0  0  0  0  0  0  0  0  0  0  0  0
   -1.3578    0.8765    1.1019 F   0  0  0  0  0  0  0  0  0  0  0  0
    2.6238    0.4034   -0.0076 F   0  0  0  0  0  0  0  0  0  0  0  0
    0.3909   -0.2648    0.0029 C   0  0  0  0  0  0  0  0  0  0  0  0
   -1.0547    0.1596   -0.0012 C   0  0  0  0  0  0  0  0  0  0  0  0
    1.3558    0.8980    0.0308 C   0  0  0  0  0  0  0  0  0  0  0  0
    1.2321    1.5478   -0.8397 H   0  0  0  0  0  0  0  0  0  0  0  0
    1.2576    1.4848    0.9480 H   0  0  0  0  0  0  0  0  0  0  0  0
  1  7  1  0  0  0  0
  2  7  1  0  0  0  0
  3  8  1  0  0  0  0
  4  8  1  0  0  0  0
  5  8  1  0  0  0  0
  6  9  1  0  0  0  0
  7  8  1  0  0  0  0
  7  9  1  0  0  0  0
  9 10  1  0  0  0  0
  9 11  1  0  0  0  0
M  END
> <PUBCHEM_COMPOUND_CID>
522282

> <PUBCHEM_CONFORMER_RMSD>
0.4

> <PUBCHEM_CONFORMER_DIVERSEORDER>
1
2
3

> <PUBCHEM_MMFF94_PARTIAL_CHARGES>
9
1 -0.34
2 -0.34
3 -0.34
4 -0.34
5 -0.34
6 -0.34
7 0.68
8 1.02
9 0.34

> <PUBCHEM_EFFECTIVE_ROTOR_COUNT>
2

> <PUBCHEM_PHARMACOPHORE_FEATURES>
0

> <PUBCHEM_HEAVY_ATOM_COUNT>
9

> <PUBCHEM_ATOM_DEF_STEREO_COUNT>
0

> <PUBCHEM_ATOM_UDEF_STEREO_COUNT>
0

> <PUBCHEM_BOND_DEF_STEREO_COUNT>
0

> <PUBCHEM_BOND_UDEF_STEREO_COUNT>
0

> <PUBCHEM_ISOTOPIC_ATOM_COUNT>
0

> <PUBCHEM_COMPONENT_COUNT>
1

> <PUBCHEM_CACTVS_TAUTO_COUNT>
1

> <PUBCHEM_CONFORMER_ID>
0007F82A00000001

> <PUBCHEM_MMFF94_ENERGY>
0.0604

> <PUBCHEM_FEATURE_SELFOVERLAP>
0

> <PUBCHEM_SHAPE_FINGERPRINT>
16714656 1 17773596207413153998
20096714 4 18342177769334907872
21040471 1 16951969440566945509
24536 1 17987510416634190187
29004967 10 17489318528366161874
5084963 1 18335419127251591816

> <PUBCHEM_SHAPE_MULTIPOLES>
141.57
2.37
1.1
0.98
0.75
0.06
0
-0.36
0.01
-0.07
0
-0.17
0.03
0

> <PUBCHEM_SHAPE_SELFOVERLAP>
280.254

> <PUBCHEM_SHAPE_VOLUME>
84.9

> <PUBCHEM_COORDINATE_TYPE>
2
5
10

$$$$
