12731184
  -OEChem-07262316203D

 11 10  0     0  0  0  0  0  0999 V2000
    0.2628   -1.6259   -0.5602 F   0  0  0  0  0  0  0  0  0  0  0  0
    0.5743    0.1874   -1.7452 F   0  0  0  0  0  0  0  0  0  0  0  0
   -0.8615   -0.0713    1.4876 F   0  0  0  0  0  0  0  0  0  0  0  0
   -0.5855    1.7154    0.2723 F   0  0  0  0  0  0  0  0  0  0  0  0
    1.9969   -0.8567    1.0828 O   0  5  0  0  0  0  0  0  0  0  0  0
    2.2983    0.9786   -0.0921 O   0  0  0  0  0  0  0  0  0  0  0  0
   -2.8840   -0.4903    0.1602 O   0  0  0  0  0  0  0  0  0  0  0  0
    1.6634   -0.0379    0.2166 N   0  3  0  0  0  0  0  0  0  0  0  0
   -2.0539    0.1103   -0.5306 N   0  0  0  0  0  0  0  0  0  0  0  0
    0.3742   -0.2836   -0.4978 C   0  0  0  0  0  0  0  0  0  0  0  0
   -0.7850    0.3740    0.2063 C   0  0  0  0  0  0  0  0  0  0  0  0
  1 10  1  0  0  0  0
  2 10  1  0  0  0  0
  3 11  1  0  0  0  0
  4 11  1  0  0  0  0
  5  8  1  0  0  0  0
  6  8  2  0  0  0  0
  7  9  2  0  0  0  0
  8 10  1  0  0  0  0
  9 11  1  0  0  0  0
 10 11  1  0  0  0  0
M  CHG  2   5  -1   8   1
M  END
> <PUBCHEM_COMPOUND_CID>
12731184

> <PUBCHEM_CONFORMER_RMSD>
0.6

> <PUBCHEM_CONFORMER_DIVERSEORDER>
1
11
7
6
8
3
2
12
9
5
10
4

> <PUBCHEM_MMFF94_PARTIAL_CHARGES>
11
1 -0.34
10 0.92
11 1.01
2 -0.34
3 -0.34
4 -0.34
5 -0.52
6 -0.52
7 -0.16
8 0.8
9 -0.17

> <PUBCHEM_EFFECTIVE_ROTOR_COUNT>
3

> <PUBCHEM_PHARMACOPHORE_FEATURES>
3
1 5 acceptor
1 5 anion
1 6 acceptor

> <PUBCHEM_HEAVY_ATOM_COUNT>
11

> <PUBCHEM_ATOM_DEF_STEREO_COUNT>
0

> <PUBCHEM_ATOM_UDEF_STEREO_COUNT>
0

> <PUBCHEM_BOND_DEF_STEREO_COUNT>
0

> <PUBCHEM_BOND_UDEF_STEREO_COUNT>
0

> <PUBCHEM_ISOTOPIC_ATOM_COUNT>
0

> <PUBCHEM_COMPONENT_COUNT>
1

> <PUBCHEM_CACTVS_TAUTO_COUNT>
1

> <PUBCHEM_CONFORMER_ID>
00C2433000000001

> <PUBCHEM_MMFF94_ENERGY>
6.818

> <PUBCHEM_FEATURE_SELFOVERLAP>
15.303

> <PUBCHEM_SHAPE_FINGERPRINT>
10857977 72 17489579108564425835
12423570 1 10974413045324666662
16945 1 17749665293863850341
21040471 1 16271919445719158470
23235685 24 17274825795735260504
24536 1 17607561009565619933
29004967 10 18341898493581724475
5084963 1 17703792475031637150

> <PUBCHEM_SHAPE_MULTIPOLES>
169.71
2.89
1.15
1.13
0.74
0.08
0.09
-0.13
-0.37
-0.18
-0.01
-0.14
-0.08
-0.16

> <PUBCHEM_SHAPE_SELFOVERLAP>
340.229

> <PUBCHEM_SHAPE_VOLUME>
100

> <PUBCHEM_COORDINATE_TYPE>
2
5
10

$$$$
