2782376
  -OEChem-07262316203D

 11 10  0     0  0  0  0  0  0999 V2000
   -0.2399   -1.1643   -1.0633 F   0  0  0  0  0  0  0  0  0  0  0  0
    0.2398   -1.1640    1.0635 F   0  0  0  0  0  0  0  0  0  0  0  0
    2.2833   -0.3516   -0.5061 F   0  0  0  0  0  0  0  0  0  0  0  0
    1.5440    1.2210    0.8055 F   0  0  0  0  0  0  0  0  0  0  0  0
   -2.2833   -0.3514    0.5060 F   0  0  0  0  0  0  0  0  0  0  0  0
   -1.5438    1.2209   -0.8058 F   0  0  0  0  0  0  0  0  0  0  0  0
   -0.0001   -0.3566    0.0001 C   0  0  0  0  0  0  0  0  0  0  0  0
    1.2296    0.4730   -0.2794 C   0  0  0  0  0  0  0  0  0  0  0  0
   -1.2296    0.4730    0.2793 C   0  0  0  0  0  0  0  0  0  0  0  0
    1.1116    1.1257   -1.1486 H   0  0  0  0  0  0  0  0  0  0  0  0
   -1.1117    1.1258    1.1485 H   0  0  0  0  0  0  0  0  0  0  0  0
  1  7  1  0  0  0  0
  2  7  1  0  0  0  0
  3  8  1  0  0  0  0
  4  8  1  0  0  0  0
  5  9  1  0  0  0  0
  6  9  1  0  0  0  0
  7  8  1  0  0  0  0
  7  9  1  0  0  0  0
  8 10  1  0  0  0  0
  9 11  1  0  0  0  0
M  END
> <PUBCHEM_COMPOUND_CID>
2782376

> <PUBCHEM_CONFORMER_RMSD>
0.4

> <PUBCHEM_CONFORMER_DIVERSEORDER>
1
6
2
3
4
5

> <PUBCHEM_MMFF94_PARTIAL_CHARGES>
9
1 -0.34
2 -0.34
3 -0.34
4 -0.34
5 -0.34
6 -0.34
7 0.68
8 0.68
9 0.68

> <PUBCHEM_EFFECTIVE_ROTOR_COUNT>
2

> <PUBCHEM_PHARMACOPHORE_FEATURES>
0

> <PUBCHEM_HEAVY_ATOM_COUNT>
9

> <PUBCHEM_ATOM_DEF_STEREO_COUNT>
0

> <PUBCHEM_ATOM_UDEF_STEREO_COUNT>
0

> <PUBCHEM_BOND_DEF_STEREO_COUNT>
0

> <PUBCHEM_BOND_UDEF_STEREO_COUNT>
0

> <PUBCHEM_ISOTOPIC_ATOM_COUNT>
0

> <PUBCHEM_COMPONENT_COUNT>
1

> <PUBCHEM_CACTVS_TAUTO_COUNT>
1

> <PUBCHEM_CONFORMER_ID>
002A74A800000001

> <PUBCHEM_MMFF94_ENERGY>
-0.2141

> <PUBCHEM_FEATURE_SELFOVERLAP>
0

> <PUBCHEM_SHAPE_FINGERPRINT>
137420 1 11870387482797533975
20096714 4 18343018895598235696
21040471 1 18113334193584123720
24536 1 17203313555106347656
29004967 10 17703241606663067902
5084963 1 18335431170081361993
5943 1 9752677999618304450

> <PUBCHEM_SHAPE_MULTIPOLES>
141.57
2.41
1.17
0.93
0
0.04
0
0.34
0
0
0
0
-0.09
0.27

> <PUBCHEM_SHAPE_SELFOVERLAP>
278.402

> <PUBCHEM_SHAPE_VOLUME>
84.7

> <PUBCHEM_COORDINATE_TYPE>
2
5
10

$$$$
