12576164
  -OEChem-07262316203D

 11 10  0     0  0  0  0  0  0999 V2000
   -1.1426    1.7592   -0.0145 F   0  0  0  0  0  0  0  0  0  0  0  0
   -2.0423    0.1126    1.0921 F   0  0  0  0  0  0  0  0  0  0  0  0
   -2.0441    0.0910   -1.0861 F   0  0  0  0  0  0  0  0  0  0  0  0
    1.1192    1.7488   -0.0155 F   0  0  0  0  0  0  0  0  0  0  0  0
    2.0392    0.1200    1.1005 F   0  0  0  0  0  0  0  0  0  0  0  0
    2.0718    0.1025   -1.0771 F   0  0  0  0  0  0  0  0  0  0  0  0
   -0.0025   -1.6421    0.0008 N   0  3  0  0  0  0  0  0  0  0  0  0
   -0.0051   -2.7828   -0.0040 N   0  5  0  0  0  0  0  0  0  0  0  0
    0.0009   -0.3230    0.0063 C   0  0  0  0  0  0  0  0  0  0  0  0
   -1.2943    0.4101   -0.0006 C   0  0  0  0  0  0  0  0  0  0  0  0
    1.2999    0.4037   -0.0018 C   0  0  0  0  0  0  0  0  0  0  0  0
  1 10  1  0  0  0  0
  2 10  1  0  0  0  0
  3 10  1  0  0  0  0
  4 11  1  0  0  0  0
  5 11  1  0  0  0  0
  6 11  1  0  0  0  0
  7  8  2  0  0  0  0
  7  9  2  0  0  0  0
  9 10  1  0  0  0  0
  9 11  1  0  0  0  0
M  CHG  2   7   1   8  -1
M  END
> <PUBCHEM_COMPOUND_CID>
12576164

> <PUBCHEM_CONFORMER_RMSD>
0.4

> <PUBCHEM_CONFORMER_DIVERSEORDER>
1

> <PUBCHEM_MMFF94_PARTIAL_CHARGES>
11
1 -0.34
10 1.08
11 1.08
2 -0.34
3 -0.34
4 -0.34
5 -0.34
6 -0.34
7 0.36
8 -0.37
9 -0.11

> <PUBCHEM_EFFECTIVE_ROTOR_COUNT>
2

> <PUBCHEM_PHARMACOPHORE_FEATURES>
1
1 7 acceptor

> <PUBCHEM_HEAVY_ATOM_COUNT>
11

> <PUBCHEM_ATOM_DEF_STEREO_COUNT>
0

> <PUBCHEM_ATOM_UDEF_STEREO_COUNT>
0

> <PUBCHEM_BOND_DEF_STEREO_COUNT>
0

> <PUBCHEM_BOND_UDEF_STEREO_COUNT>
0

> <PUBCHEM_ISOTOPIC_ATOM_COUNT>
0

> <PUBCHEM_COMPONENT_COUNT>
1

> <PUBCHEM_CACTVS_TAUTO_COUNT>
1

> <PUBCHEM_CONFORMER_ID>
00BFE5A400000001

> <PUBCHEM_MMFF94_ENERGY>
8.6235

> <PUBCHEM_FEATURE_SELFOVERLAP>
5.074

> <PUBCHEM_SHAPE_FINGERPRINT>
137420 1 13564043162183471835
18185500 45 17910105811635353927
21040471 1 18410573998226257090
24536 1 17915183635568575152
5084963 1 18131633387037909581

> <PUBCHEM_SHAPE_MULTIPOLES>
172.77
2.42
2
0.89
0.02
1.36
-0.01
-0.71
0.01
-0.01
0.01
0
-0.04
0

> <PUBCHEM_SHAPE_SELFOVERLAP>
349.101

> <PUBCHEM_SHAPE_VOLUME>
101.4

> <PUBCHEM_COORDINATE_TYPE>
2
5
10

$$$$
