69647
  -OEChem-07262316193D

  9  8  0     0  0  0  0  0  0999 V2000
    2.0717   -1.0185   -0.0127 F   0  0  0  0  0  0  0  0  0  0  0  0
    1.3013    0.7219   -1.0709 F   0  0  0  0  0  0  0  0  0  0  0  0
    1.2661    0.6684    1.1064 F   0  0  0  0  0  0  0  0  0  0  0  0
   -2.5967   -0.7507   -0.0089 F   0  0  0  0  0  0  0  0  0  0  0  0
   -1.4369    1.2727    0.0051 F   0  0  0  0  0  0  0  0  0  0  0  0
    1.0828   -0.0887   -0.0052 C   0  0  0  0  0  0  0  0  0  0  0  0
   -0.2606   -0.7279   -0.0092 C   0  0  0  0  0  0  0  0  0  0  0  0
   -1.4276   -0.0770   -0.0047 C   0  0  0  0  0  0  0  0  0  0  0  0
   -0.2835   -1.8145   -0.0167 H   0  0  0  0  0  0  0  0  0  0  0  0
  1  6  1  0  0  0  0
  2  6  1  0  0  0  0
  3  6  1  0  0  0  0
  4  8  1  0  0  0  0
  5  8  1  0  0  0  0
  6  7  1  0  0  0  0
  7  8  2  0  0  0  0
  7  9  1  0  0  0  0
M  END
> <PUBCHEM_COMPOUND_CID>
69647

> <PUBCHEM_CONFORMER_RMSD>
0.4

> <PUBCHEM_CONFORMER_DIVERSEORDER>
1

> <PUBCHEM_MMFF94_PARTIAL_CHARGES>
9
1 -0.34
2 -0.34
3 -0.34
4 -0.15
5 -0.15
6 1.16
7 -0.29
8 0.3
9 0.15

> <PUBCHEM_EFFECTIVE_ROTOR_COUNT>
1

> <PUBCHEM_PHARMACOPHORE_FEATURES>
0

> <PUBCHEM_HEAVY_ATOM_COUNT>
8

> <PUBCHEM_ATOM_DEF_STEREO_COUNT>
0

> <PUBCHEM_ATOM_UDEF_STEREO_COUNT>
0

> <PUBCHEM_BOND_DEF_STEREO_COUNT>
0

> <PUBCHEM_BOND_UDEF_STEREO_COUNT>
0

> <PUBCHEM_ISOTOPIC_ATOM_COUNT>
0

> <PUBCHEM_COMPONENT_COUNT>
1

> <PUBCHEM_CACTVS_TAUTO_COUNT>
1

> <PUBCHEM_CONFORMER_ID>
0001100F00000001

> <PUBCHEM_MMFF94_ENERGY>
1.5075

> <PUBCHEM_FEATURE_SELFOVERLAP>
0

> <PUBCHEM_SHAPE_FINGERPRINT>
20096714 4 17895203215631552340
21040471 1 18410855507462654727
23552423 10 18259989245009640599
24536 1 18113896082733370415
29004967 10 18338797943711031195
5084963 1 18335139769614513411
5460574 1 9223232948644645518

> <PUBCHEM_SHAPE_MULTIPOLES>
128.27
2.76
1.05
0.78
0.84
0.09
-0.01
-0.42
0.01
0.05
0.01
-0.31
0.16
-0.01

> <PUBCHEM_SHAPE_SELFOVERLAP>
248.206

> <PUBCHEM_SHAPE_VOLUME>
77.3

> <PUBCHEM_COORDINATE_TYPE>
2
5
10

$$$$
