23235592
  -OEChem-07262316203D

 10  9  0     0  0  0  0  0  0999 V2000
    1.0641    0.8016    1.0412 F   0  0  0  0  0  0  0  0  0  0  0  0
    1.0344    0.6550   -1.1368 F   0  0  0  0  0  0  0  0  0  0  0  0
    1.7433   -1.0316    0.0543 F   0  0  0  0  0  0  0  0  0  0  0  0
   -0.5354   -0.5608    0.0416 N   0  0  0  0  0  0  0  0  0  0  0  0
   -1.3838    0.3510   -0.0223 N   0  0  0  0  0  0  0  0  0  0  0  0
    0.8237   -0.0386    0.0069 C   0  0  0  0  0  0  0  0  0  0  0  0
   -2.7464   -0.1767    0.0149 C   0  0  0  0  0  0  0  0  0  0  0  0
   -2.9328   -0.7189    0.9480 H   0  0  0  0  0  0  0  0  0  0  0  0
   -2.9330   -0.8439   -0.8331 H   0  0  0  0  0  0  0  0  0  0  0  0
   -3.4568    0.6531   -0.0432 H   0  0  0  0  0  0  0  0  0  0  0  0
  1  6  1  0  0  0  0
  2  6  1  0  0  0  0
  3  6  1  0  0  0  0
  4  5  2  0  0  0  0
  4  6  1  0  0  0  0
  5  7  1  0  0  0  0
  7  8  1  0  0  0  0
  7  9  1  0  0  0  0
  7 10  1  0  0  0  0
M  END
> <PUBCHEM_COMPOUND_CID>
23235592

> <PUBCHEM_CONFORMER_RMSD>
0.4

> <PUBCHEM_CONFORMER_DIVERSEORDER>
1

> <PUBCHEM_MMFF94_PARTIAL_CHARGES>
7
1 -0.34
2 -0.34
3 -0.34
4 -0.25
5 -0.25
6 1.27
7 0.25

> <PUBCHEM_EFFECTIVE_ROTOR_COUNT>
1

> <PUBCHEM_PHARMACOPHORE_FEATURES>
0

> <PUBCHEM_HEAVY_ATOM_COUNT>
7

> <PUBCHEM_ATOM_DEF_STEREO_COUNT>
0

> <PUBCHEM_ATOM_UDEF_STEREO_COUNT>
0

> <PUBCHEM_BOND_DEF_STEREO_COUNT>
0

> <PUBCHEM_BOND_UDEF_STEREO_COUNT>
0

> <PUBCHEM_ISOTOPIC_ATOM_COUNT>
0

> <PUBCHEM_COMPONENT_COUNT>
1

> <PUBCHEM_CACTVS_TAUTO_COUNT>
1

> <PUBCHEM_CONFORMER_ID>
01628C0800000001

> <PUBCHEM_MMFF94_ENERGY>
3.1662

> <PUBCHEM_FEATURE_SELFOVERLAP>
0

> <PUBCHEM_SHAPE_FINGERPRINT>
20096714 4 17241336892024857021
21040471 1 18337391659648944083
24536 1 17968092062177553847
29004967 10 17604154731196040618
5460574 1 9511461121741742091
5943 1 13794195552129560852

> <PUBCHEM_SHAPE_MULTIPOLES>
112.27
2.94
0.85
0.81
2.18
0.07
-0.03
0.28
0.02
-0.29
0.02
-0.29
-0.2
0.01

> <PUBCHEM_SHAPE_SELFOVERLAP>
207.303

> <PUBCHEM_SHAPE_VOLUME>
72.1

> <PUBCHEM_COORDINATE_TYPE>
2
5
10

$$$$
