136492
  -OEChem-07262316203D

 10  9  0     0  0  0  0  0  0999 V2000
   -0.5049   -0.5259    0.0000 O   0  0  0  0  0  0  0  0  0  0  0  0
    0.5049    0.5260    0.0000 O   0  0  0  0  0  0  0  0  0  0  0  0
   -1.7531    0.1514    0.0000 C   0  0  0  0  0  0  0  0  0  0  0  0
    1.7531   -0.1515    0.0000 C   0  0  0  0  0  0  0  0  0  0  0  0
   -2.5533   -0.5930    0.0000 H   0  0  0  0  0  0  0  0  0  0  0  0
   -1.8442    0.7709   -0.8969 H   0  0  0  0  0  0  0  0  0  0  0  0
   -1.8443    0.7710    0.8969 H   0  0  0  0  0  0  0  0  0  0  0  0
    2.5534    0.5927    0.0000 H   0  0  0  0  0  0  0  0  0  0  0  0
    1.8440   -0.7711   -0.8969 H   0  0  0  0  0  0  0  0  0  0  0  0
    1.8441   -0.7712    0.8968 H   0  0  0  0  0  0  0  0  0  0  0  0
  1  2  1  0  0  0  0
  1  3  1  0  0  0  0
  2  4  1  0  0  0  0
  3  5  1  0  0  0  0
  3  6  1  0  0  0  0
  3  7  1  0  0  0  0
  4  8  1  0  0  0  0
  4  9  1  0  0  0  0
  4 10  1  0  0  0  0
M  END
> <PUBCHEM_COMPOUND_CID>
136492

> <PUBCHEM_CONFORMER_RMSD>
0.4

> <PUBCHEM_CONFORMER_DIVERSEORDER>
1
2
3

> <PUBCHEM_MMFF94_PARTIAL_CHARGES>
4
1 -0.28
2 -0.28
3 0.28
4 0.28

> <PUBCHEM_EFFECTIVE_ROTOR_COUNT>
1

> <PUBCHEM_PHARMACOPHORE_FEATURES>
0

> <PUBCHEM_HEAVY_ATOM_COUNT>
4

> <PUBCHEM_ATOM_DEF_STEREO_COUNT>
0

> <PUBCHEM_ATOM_UDEF_STEREO_COUNT>
0

> <PUBCHEM_BOND_DEF_STEREO_COUNT>
0

> <PUBCHEM_BOND_UDEF_STEREO_COUNT>
0

> <PUBCHEM_ISOTOPIC_ATOM_COUNT>
0

> <PUBCHEM_COMPONENT_COUNT>
1

> <PUBCHEM_CACTVS_TAUTO_COUNT>
1

> <PUBCHEM_CONFORMER_ID>
0002152C00000001

> <PUBCHEM_MMFF94_ENERGY>
2.0407

> <PUBCHEM_FEATURE_SELFOVERLAP>
0

> <PUBCHEM_SHAPE_FINGERPRINT>
139733 1 18410856551234477799
20096714 4 8646480825991931014
21015797 1 18194682798273462309
5460574 1 18410856542459920390

> <PUBCHEM_SHAPE_MULTIPOLES>
70.58
2.46
0.69
0.56
0
0
0
0
0
0
0
0
0
0

> <PUBCHEM_SHAPE_SELFOVERLAP>
109.884

> <PUBCHEM_SHAPE_VOLUME>
51.9

> <PUBCHEM_COORDINATE_TYPE>
2
5
10

$$$$
