15093635
  -OEChem-07262316203D

  8  7  0     0  0  0  0  0  0999 V2000
    1.8875   -1.2710   -0.0006 F   0  0  0  0  0  0  0  0  0  0  0  0
   -1.8875    1.2709   -0.0007 F   0  0  0  0  0  0  0  0  0  0  0  0
    0.4511    0.5710    0.0002 O   0  0  0  0  0  0  0  0  0  0  0  0
   -0.4512   -0.5709    0.0002 O   0  0  0  0  0  0  0  0  0  0  0  0
    2.7257    0.7481    0.0003 O   0  0  0  0  0  0  0  0  0  0  0  0
   -2.7256   -0.7481    0.0002 O   0  0  0  0  0  0  0  0  0  0  0  0
    1.7152    0.0597    0.0002 C   0  0  0  0  0  0  0  0  0  0  0  0
   -1.7152   -0.0597    0.0003 C   0  0  0  0  0  0  0  0  0  0  0  0
  1  7  1  0  0  0  0
  2  8  1  0  0  0  0
  3  4  1  0  0  0  0
  3  7  1  0  0  0  0
  4  8  1  0  0  0  0
  5  7  2  0  0  0  0
  6  8  2  0  0  0  0
M  END
> <PUBCHEM_COMPOUND_CID>
15093635

> <PUBCHEM_CONFORMER_RMSD>
0.6

> <PUBCHEM_CONFORMER_DIVERSEORDER>
1
10
19
12
13
11
18
3
16
17
2
7
6
8
9
14
5
4
15

> <PUBCHEM_MMFF94_PARTIAL_CHARGES>
8
1 -0.22
2 -0.22
3 -0.15
4 -0.15
5 -0.57
6 -0.57
7 0.94
8 0.94

> <PUBCHEM_EFFECTIVE_ROTOR_COUNT>
3

> <PUBCHEM_PHARMACOPHORE_FEATURES>
2
1 5 acceptor
1 6 acceptor

> <PUBCHEM_HEAVY_ATOM_COUNT>
8

> <PUBCHEM_ATOM_DEF_STEREO_COUNT>
0

> <PUBCHEM_ATOM_UDEF_STEREO_COUNT>
0

> <PUBCHEM_BOND_DEF_STEREO_COUNT>
0

> <PUBCHEM_BOND_UDEF_STEREO_COUNT>
0

> <PUBCHEM_ISOTOPIC_ATOM_COUNT>
0

> <PUBCHEM_COMPONENT_COUNT>
1

> <PUBCHEM_CACTVS_TAUTO_COUNT>
1

> <PUBCHEM_CONFORMER_ID>
00E64F8300000001

> <PUBCHEM_MMFF94_ENERGY>
3.4437

> <PUBCHEM_FEATURE_SELFOVERLAP>
10.149

> <PUBCHEM_SHAPE_FINGERPRINT>
12932764 1 17561357400525504518
14390081 3 18342454867708399352
21040471 1 18410855494857275718
23552423 10 18261115114798860686
29004967 10 18261396667179707504
5460574 1 9223239545703628800

> <PUBCHEM_SHAPE_MULTIPOLES>
126.61
4.01
1.07
0.53
0
0
0
0
0
0
0
0
0
0

> <PUBCHEM_SHAPE_SELFOVERLAP>
240.382

> <PUBCHEM_SHAPE_VOLUME>
77.1

> <PUBCHEM_COORDINATE_TYPE>
2
5
10

$$$$
