136497
  -OEChem-07262316193D

  5  5  0     0  0  0  0  0  0999 V2000
   -0.9989   -1.1222   -0.0001 F   0  0  0  0  0  0  0  0  0  0  0  0
   -0.9995    1.1219    0.0000 F   0  0  0  0  0  0  0  0  0  0  0  0
    1.1032    0.0003   -0.6213 N   0  0  0  0  0  0  0  0  0  0  0  0
    1.1036    0.0000    0.6211 N   0  0  0  0  0  0  0  0  0  0  0  0
   -0.2084    0.0000    0.0002 C   0  0  0  0  0  0  0  0  0  0  0  0
  1  5  1  0  0  0  0
  2  5  1  0  0  0  0
  3  4  2  0  0  0  0
  3  5  1  0  0  0  0
  4  5  1  0  0  0  0
M  END
> <PUBCHEM_COMPOUND_CID>
136497

> <PUBCHEM_CONFORMER_RMSD>
0.4

> <PUBCHEM_CONFORMER_DIVERSEORDER>
1

> <PUBCHEM_MMFF94_PARTIAL_CHARGES>
5
1 -0.23
2 -0.23
3 -0.21
4 -0.21
5 0.89

> <PUBCHEM_EFFECTIVE_ROTOR_COUNT>
0.2

> <PUBCHEM_PHARMACOPHORE_FEATURES>
0

> <PUBCHEM_HEAVY_ATOM_COUNT>
5

> <PUBCHEM_ATOM_DEF_STEREO_COUNT>
0

> <PUBCHEM_ATOM_UDEF_STEREO_COUNT>
0

> <PUBCHEM_BOND_DEF_STEREO_COUNT>
0

> <PUBCHEM_BOND_UDEF_STEREO_COUNT>
0

> <PUBCHEM_ISOTOPIC_ATOM_COUNT>
0

> <PUBCHEM_COMPONENT_COUNT>
1

> <PUBCHEM_CACTVS_TAUTO_COUNT>
1

> <PUBCHEM_CONFORMER_ID>
0002153100000001

> <PUBCHEM_MMFF94_ENERGY>
4.6476

> <PUBCHEM_FEATURE_SELFOVERLAP>
0

> <PUBCHEM_SHAPE_FINGERPRINT>
139733 1 9222418206328454723
20096714 4 17969519129365132516
21015797 1 10735613378846675588
5943 1 15030659461763676676

> <PUBCHEM_SHAPE_MULTIPOLES>
78.39
1.36
0.95
0.68
0.11
0
0
0
0
-0.44
0
0.17
0
0

> <PUBCHEM_SHAPE_SELFOVERLAP>
148.027

> <PUBCHEM_SHAPE_VOLUME>
46.9

> <PUBCHEM_COORDINATE_TYPE>
2
5
10

$$$$
