136533
  -OEChem-07262316203D

 11 11  0     0  0  0  0  0  0999 V2000
   -0.0058   -1.9776   -0.7863 F   0  0  0  0  0  0  0  0  0  0  0  0
   -0.0100   -1.5576    1.3403 F   0  0  0  0  0  0  0  0  0  0  0  0
    2.0561    0.2234    0.8578 F   0  0  0  0  0  0  0  0  0  0  0  0
    1.6907    0.1764   -1.2903 F   0  0  0  0  0  0  0  0  0  0  0  0
   -2.0498    0.2231    0.8621 F   0  0  0  0  0  0  0  0  0  0  0  0
   -1.6792    0.2011   -1.3018 F   0  0  0  0  0  0  0  0  0  0  0  0
    0.0049    2.3476    0.2860 O   0  0  0  0  0  0  0  0  0  0  0  0
   -0.0054   -0.9724    0.1190 C   0  0  0  0  0  0  0  0  0  0  0  0
    1.1038    0.0882   -0.0830 C   0  0  0  0  0  0  0  0  0  0  0  0
   -1.1067    0.0953   -0.0889 C   0  0  0  0  0  0  0  0  0  0  0  0
    0.0015    1.1524    0.0851 C   0  0  0  0  0  0  0  0  0  0  0  0
  1  8  1  0  0  0  0
  2  8  1  0  0  0  0
  3  9  1  0  0  0  0
  4  9  1  0  0  0  0
  5 10  1  0  0  0  0
  6 10  1  0  0  0  0
  7 11  2  0  0  0  0
  8  9  1  0  0  0  0
  8 10  1  0  0  0  0
  9 11  1  0  0  0  0
 10 11  1  0  0  0  0
M  END
> <PUBCHEM_COMPOUND_CID>
136533

> <PUBCHEM_CONFORMER_RMSD>
0.4

> <PUBCHEM_CONFORMER_DIVERSEORDER>
1

> <PUBCHEM_MMFF94_PARTIAL_CHARGES>
11
1 -0.3
10 0.65
11 0.46
2 -0.3
3 -0.3
4 -0.3
5 -0.3
6 -0.3
7 -0.57
8 0.6
9 0.65

> <PUBCHEM_EFFECTIVE_ROTOR_COUNT>
0.6

> <PUBCHEM_PHARMACOPHORE_FEATURES>
2
1 7 acceptor
4 8 9 10 11 rings

> <PUBCHEM_HEAVY_ATOM_COUNT>
11

> <PUBCHEM_ATOM_DEF_STEREO_COUNT>
0

> <PUBCHEM_ATOM_UDEF_STEREO_COUNT>
0

> <PUBCHEM_BOND_DEF_STEREO_COUNT>
0

> <PUBCHEM_BOND_UDEF_STEREO_COUNT>
0

> <PUBCHEM_ISOTOPIC_ATOM_COUNT>
0

> <PUBCHEM_COMPONENT_COUNT>
1

> <PUBCHEM_CACTVS_TAUTO_COUNT>
1

> <PUBCHEM_CONFORMER_ID>
0002155500000001

> <PUBCHEM_MMFF94_ENERGY>
4.2383

> <PUBCHEM_FEATURE_SELFOVERLAP>
10.148

> <PUBCHEM_SHAPE_FINGERPRINT>
12423570 1 12431161962242662511
13024252 1 17533466050873229040
137420 1 11916735845014768778
16945 1 18413388739224139533
21040471 1 18411145735503411474
29004967 10 18411426076835674449
5084963 1 18113337504972357838

> <PUBCHEM_SHAPE_MULTIPOLES>
176.86
1.88
1.75
1.09
0.01
0.2
-0.08
0.21
-0.04
0
0.16
0
-0.23
0.01

> <PUBCHEM_SHAPE_SELFOVERLAP>
375.221

> <PUBCHEM_SHAPE_VOLUME>
99.3

> <PUBCHEM_COORDINATE_TYPE>
2
5
10

$$$$
