22178540
  -OEChem-07262316203D

 12 11  0     0  0  0  0  0  0999 V2000
    0.5969    1.2731   -0.2941 F   0  0  0  0  0  0  0  0  0  0  0  0
    0.7726   -0.0768    1.4244 F   0  0  0  0  0  0  0  0  0  0  0  0
    2.9734   -0.0281   -0.1875 F   0  0  0  0  0  0  0  0  0  0  0  0
   -2.7715   -0.8108   -0.1816 F   0  0  0  0  0  0  0  0  0  0  0  0
   -1.8368    1.1558   -0.2133 F   0  0  0  0  0  0  0  0  0  0  0  0
   -0.5408   -0.6875   -0.3160 O   0  0  0  0  0  0  0  0  0  0  0  0
    0.6561   -0.0281    0.0759 C   0  0  0  0  0  0  0  0  0  0  0  0
    1.8488   -0.6905   -0.5655 C   0  0  0  0  0  0  0  0  0  0  0  0
   -1.6988   -0.1071    0.2577 C   0  0  0  0  0  0  0  0  0  0  0  0
    1.7855   -0.6576   -1.6569 H   0  0  0  0  0  0  0  0  0  0  0  0
    1.9449   -1.7336   -0.2509 H   0  0  0  0  0  0  0  0  0  0  0  0
   -1.6791   -0.1116    1.3519 H   0  0  0  0  0  0  0  0  0  0  0  0
  1  7  1  0  0  0  0
  2  7  1  0  0  0  0
  3  8  1  0  0  0  0
  4  9  1  0  0  0  0
  5  9  1  0  0  0  0
  6  7  1  0  0  0  0
  6  9  1  0  0  0  0
  7  8  1  0  0  0  0
  8 10  1  0  0  0  0
  8 11  1  0  0  0  0
  9 12  1  0  0  0  0
M  END
> <PUBCHEM_COMPOUND_CID>
22178540

> <PUBCHEM_CONFORMER_RMSD>
0.6

> <PUBCHEM_CONFORMER_DIVERSEORDER>
1
19
23
10
22
17
3
24
9
8
20
2
13
6
7
18
15
4
21
16
5
12
14
11

> <PUBCHEM_MMFF94_PARTIAL_CHARGES>
9
1 -0.34
2 -0.34
3 -0.34
4 -0.34
5 -0.34
6 -0.56
7 0.96
8 0.34
9 0.96

> <PUBCHEM_EFFECTIVE_ROTOR_COUNT>
3

> <PUBCHEM_PHARMACOPHORE_FEATURES>
1
1 6 acceptor

> <PUBCHEM_HEAVY_ATOM_COUNT>
9

> <PUBCHEM_ATOM_DEF_STEREO_COUNT>
0

> <PUBCHEM_ATOM_UDEF_STEREO_COUNT>
0

> <PUBCHEM_BOND_DEF_STEREO_COUNT>
0

> <PUBCHEM_BOND_UDEF_STEREO_COUNT>
0

> <PUBCHEM_ISOTOPIC_ATOM_COUNT>
0

> <PUBCHEM_COMPONENT_COUNT>
1

> <PUBCHEM_CACTVS_TAUTO_COUNT>
1

> <PUBCHEM_CONFORMER_ID>
01526AEC00000001

> <PUBCHEM_MMFF94_ENERGY>
5.7214

> <PUBCHEM_FEATURE_SELFOVERLAP>
5.074

> <PUBCHEM_SHAPE_FINGERPRINT>
16714656 1 18410858728603561950
21040471 1 17976810987548988237
23552423 10 18116722811307093150
24536 1 18340755009983865421
29004967 10 18411992346851621402
5084963 1 18202283627951989811
5460574 1 8430316826922704806

> <PUBCHEM_SHAPE_MULTIPOLES>
142.98
3.47
0.99
0.8
0.03
0.16
-0.25
-0.51
0.38
0.22
0.16
-0.17
0.02
0.09

> <PUBCHEM_SHAPE_SELFOVERLAP>
275.117

> <PUBCHEM_SHAPE_VOLUME>
87

> <PUBCHEM_COORDINATE_TYPE>
2
5
10

$$$$
