533618
  -OEChem-07262316203D

 10  9  0     0  0  0  0  0  0999 V2000
    0.5484   -1.3004   -0.1461 F   0  0  0  0  0  0  0  0  0  0  0  0
    1.6281    0.6749   -0.0077 F   0  0  0  0  0  0  0  0  0  0  0  0
    0.4775   -0.0055    0.3026 N   0  0  0  0  0  0  0  0  0  0  0  0
   -0.6825    0.6679   -0.2677 C   0  0  0  0  0  0  0  0  0  0  0  0
   -1.9716   -0.0369    0.1189 C   0  0  0  0  0  0  0  0  0  0  0  0
   -0.7118    1.7007    0.0949 H   0  0  0  0  0  0  0  0  0  0  0  0
   -0.5900    0.7010   -1.3584 H   0  0  0  0  0  0  0  0  0  0  0  0
   -1.9964   -1.0625   -0.2641 H   0  0  0  0  0  0  0  0  0  0  0  0
   -2.0910   -0.0741    1.2070 H   0  0  0  0  0  0  0  0  0  0  0  0
   -2.8321    0.4972   -0.2965 H   0  0  0  0  0  0  0  0  0  0  0  0
  1  3  1  0  0  0  0
  2  3  1  0  0  0  0
  3  4  1  0  0  0  0
  4  5  1  0  0  0  0
  4  6  1  0  0  0  0
  4  7  1  0  0  0  0
  5  8  1  0  0  0  0
  5  9  1  0  0  0  0
  5 10  1  0  0  0  0
M  END
> <PUBCHEM_COMPOUND_CID>
533618

> <PUBCHEM_CONFORMER_RMSD>
0.4

> <PUBCHEM_CONFORMER_DIVERSEORDER>
1
2

> <PUBCHEM_MMFF94_PARTIAL_CHARGES>
4
1 -0.06
2 -0.06
3 -0.14
4 0.27

> <PUBCHEM_EFFECTIVE_ROTOR_COUNT>
1

> <PUBCHEM_PHARMACOPHORE_FEATURES>
0

> <PUBCHEM_HEAVY_ATOM_COUNT>
5

> <PUBCHEM_ATOM_DEF_STEREO_COUNT>
0

> <PUBCHEM_ATOM_UDEF_STEREO_COUNT>
0

> <PUBCHEM_BOND_DEF_STEREO_COUNT>
0

> <PUBCHEM_BOND_UDEF_STEREO_COUNT>
0

> <PUBCHEM_ISOTOPIC_ATOM_COUNT>
0

> <PUBCHEM_COMPONENT_COUNT>
1

> <PUBCHEM_CACTVS_TAUTO_COUNT>
1

> <PUBCHEM_CONFORMER_ID>
0008247200000001

> <PUBCHEM_MMFF94_ENERGY>
-5.3897

> <PUBCHEM_FEATURE_SELFOVERLAP>
0

> <PUBCHEM_SHAPE_FINGERPRINT>
139733 1 9150012071473231695
16714656 1 18263932205402180572
20096714 4 18341330084318947824
21015797 1 8862643725185402705
5460574 1 9943532912011431073
5943 1 13222539600877379732

> <PUBCHEM_SHAPE_MULTIPOLES>
83.37
2.09
1
0.59
0.46
0.22
0
-0.17
0.09
-0.22
-0.08
0.07
-0.02
0.06

> <PUBCHEM_SHAPE_SELFOVERLAP>
138.951

> <PUBCHEM_SHAPE_VOLUME>
58.2

> <PUBCHEM_COORDINATE_TYPE>
2
5
10

$$$$
