123262
  -OEChem-07262316193D

  5  4  0     0  0  0  0  0  0999 V2000
    1.8081    0.0113    0.0003 F   0  0  0  0  0  0  0  0  0  0  0  0
    0.6120    0.7627   -0.0003 O   0  0  0  0  0  0  0  0  0  0  0  0
   -0.2797   -1.2589    0.0000 O   0  5  0  0  0  0  0  0  0  0  0  0
   -1.6094    0.5395    0.0004 O   0  0  0  0  0  0  0  0  0  0  0  0
   -0.5310   -0.0545   -0.0004 N   0  3  0  0  0  0  0  0  0  0  0  0
  1  2  1  0  0  0  0
  2  5  1  0  0  0  0
  3  5  1  0  0  0  0
  4  5  2  0  0  0  0
M  CHG  2   3  -1   5   1
M  END
> <PUBCHEM_COMPOUND_CID>
123262

> <PUBCHEM_CONFORMER_RMSD>
0.4

> <PUBCHEM_CONFORMER_DIVERSEORDER>
1
2

> <PUBCHEM_MMFF94_PARTIAL_CHARGES>
5
1 -0.07
2 0.08
3 -0.52
4 -0.52
5 1.03

> <PUBCHEM_EFFECTIVE_ROTOR_COUNT>
1

> <PUBCHEM_PHARMACOPHORE_FEATURES>
2
1 3 acceptor
1 4 acceptor

> <PUBCHEM_HEAVY_ATOM_COUNT>
5

> <PUBCHEM_ATOM_DEF_STEREO_COUNT>
0

> <PUBCHEM_ATOM_UDEF_STEREO_COUNT>
0

> <PUBCHEM_BOND_DEF_STEREO_COUNT>
0

> <PUBCHEM_BOND_UDEF_STEREO_COUNT>
0

> <PUBCHEM_ISOTOPIC_ATOM_COUNT>
0

> <PUBCHEM_COMPONENT_COUNT>
1

> <PUBCHEM_CACTVS_TAUTO_COUNT>
1

> <PUBCHEM_CONFORMER_ID>
0001E17E00000001

> <PUBCHEM_MMFF94_ENERGY>
2.617

> <PUBCHEM_FEATURE_SELFOVERLAP>
10.217

> <PUBCHEM_SHAPE_FINGERPRINT>
139733 1 9220749151872237762
20096714 4 18409730664049208160
21015797 1 8932983860638590609

> <PUBCHEM_SHAPE_MULTIPOLES>
73.04
1.76
0.99
0.49
0.37
0.28
0
-0.32
0
-0.1
0
-0.01
0
0

> <PUBCHEM_SHAPE_SELFOVERLAP>
126.843

> <PUBCHEM_SHAPE_VOLUME>
45.5

> <PUBCHEM_COORDINATE_TYPE>
2
5
10

$$$$
