550028
  -OEChem-07262316203D

  7  6  0     1  0  0  0  0  0999 V2000
   -0.9768   -0.0608    0.6346 S   0  0  1  0  0  0  0  0  0  0  0  0
    1.4415    0.9311    0.6559 F   0  0  0  0  0  0  0  0  0  0  0  0
    0.7534    0.2594   -1.3027 F   0  0  0  0  0  0  0  0  0  0  0  0
    1.3370   -1.2020    0.2092 F   0  0  0  0  0  0  0  0  0  0  0  0
   -1.5619    1.2218   -0.0982 F   0  0  0  0  0  0  0  0  0  0  0  0
   -1.7034   -1.1330   -0.1214 O   0  0  0  0  0  0  0  0  0  0  0  0
    0.7102   -0.0164    0.0225 C   0  0  0  0  0  0  0  0  0  0  0  0
  1  5  1  0  0  0  0
  1  6  2  0  0  0  0
  1  7  1  0  0  0  0
  2  7  1  0  0  0  0
  3  7  1  0  0  0  0
  4  7  1  0  0  0  0
M  END
> <PUBCHEM_COMPOUND_CID>
550028

> <PUBCHEM_CONFORMER_RMSD>
0.4

> <PUBCHEM_CONFORMER_DIVERSEORDER>
1
2

> <PUBCHEM_MMFF94_PARTIAL_CHARGES>
7
1 0.43
2 -0.34
3 -0.34
4 -0.34
5 -0.13
6 -0.5
7 1.21

> <PUBCHEM_EFFECTIVE_ROTOR_COUNT>
1

> <PUBCHEM_PHARMACOPHORE_FEATURES>
0

> <PUBCHEM_HEAVY_ATOM_COUNT>
7

> <PUBCHEM_ATOM_DEF_STEREO_COUNT>
0

> <PUBCHEM_ATOM_UDEF_STEREO_COUNT>
1

> <PUBCHEM_BOND_DEF_STEREO_COUNT>
0

> <PUBCHEM_BOND_UDEF_STEREO_COUNT>
0

> <PUBCHEM_ISOTOPIC_ATOM_COUNT>
0

> <PUBCHEM_COMPONENT_COUNT>
1

> <PUBCHEM_CACTVS_TAUTO_COUNT>
1

> <PUBCHEM_CONFORMER_ID>
0008648C00000001

> <PUBCHEM_MMFF94_ENERGY>
0.2646

> <PUBCHEM_FEATURE_SELFOVERLAP>
0

> <PUBCHEM_SHAPE_FINGERPRINT>
20096714 4 18263366884721731417
21040471 1 18264213504406609737
24536 1 17458355168563050219
29004967 10 18118971536076980635
5943 1 17530684329035434813

> <PUBCHEM_SHAPE_MULTIPOLES>
112.94
2.03
1.17
0.88
0.33
0.05
-0.14
0.07
0.08
0.16
0.03
-0.16
-0.08
0.02

> <PUBCHEM_SHAPE_SELFOVERLAP>
200.955

> <PUBCHEM_SHAPE_VOLUME>
74.5

> <PUBCHEM_COORDINATE_TYPE>
2
5
10

$$$$
