12856931
  -OEChem-07262316203D

 16 15  0     0  0  0  0  0  0999 V2000
   -0.7303    1.9550    0.3072 F   0  0  0  0  0  0  0  0  0  0  0  0
   -0.5593    0.7608   -1.5069 F   0  0  0  0  0  0  0  0  0  0  0  0
    1.7554   -1.9532    0.5723 F   0  0  0  0  0  0  0  0  0  0  0  0
   -0.3957   -2.1371    0.4066 F   0  0  0  0  0  0  0  0  0  0  0  0
    0.7812   -1.5043   -1.3291 F   0  0  0  0  0  0  0  0  0  0  0  0
    2.8100    0.1797    0.6823 F   0  0  0  0  0  0  0  0  0  0  0  0
    1.6625    2.0214    0.6858 F   0  0  0  0  0  0  0  0  0  0  0  0
    1.9359    0.9172   -1.1808 F   0  0  0  0  0  0  0  0  0  0  0  0
   -2.2714    0.0502    1.4882 F   0  0  0  0  0  0  0  0  0  0  0  0
   -2.1399   -1.2047   -0.2981 F   0  0  0  0  0  0  0  0  0  0  0  0
   -3.0122    0.7799   -0.4280 F   0  0  0  0  0  0  0  0  0  0  0  0
    0.4995    0.0109    0.4301 N   0  0  0  0  0  0  0  0  0  0  0  0
   -0.6791    0.6687   -0.1533 C   0  0  0  0  0  0  0  0  0  0  0  0
   -2.0295    0.0586    0.1605 C   0  0  0  0  0  0  0  0  0  0  0  0
    0.6584   -1.3800    0.0144 C   0  0  0  0  0  0  0  0  0  0  0  0
    1.7145    0.7768    0.1488 C   0  0  0  0  0  0  0  0  0  0  0  0
  1 13  1  0  0  0  0
  2 13  1  0  0  0  0
  3 15  1  0  0  0  0
  4 15  1  0  0  0  0
  5 15  1  0  0  0  0
  6 16  1  0  0  0  0
  7 16  1  0  0  0  0
  8 16  1  0  0  0  0
  9 14  1  0  0  0  0
 10 14  1  0  0  0  0
 11 14  1  0  0  0  0
 12 13  1  0  0  0  0
 12 15  1  0  0  0  0
 12 16  1  0  0  0  0
 13 14  1  0  0  0  0
M  END
> <PUBCHEM_COMPOUND_CID>
12856931

> <PUBCHEM_CONFORMER_RMSD>
0.6

> <PUBCHEM_CONFORMER_DIVERSEORDER>
1
2
3

> <PUBCHEM_MMFF94_PARTIAL_CHARGES>
16
1 -0.34
10 -0.34
11 -0.34
12 -0.81
13 0.95
14 1.02
15 1.29
16 1.29
2 -0.34
3 -0.34
4 -0.34
5 -0.34
6 -0.34
7 -0.34
8 -0.34
9 -0.34

> <PUBCHEM_EFFECTIVE_ROTOR_COUNT>
4

> <PUBCHEM_PHARMACOPHORE_FEATURES>
1
1 12 cation

> <PUBCHEM_HEAVY_ATOM_COUNT>
16

> <PUBCHEM_ATOM_DEF_STEREO_COUNT>
0

> <PUBCHEM_ATOM_UDEF_STEREO_COUNT>
0

> <PUBCHEM_BOND_DEF_STEREO_COUNT>
0

> <PUBCHEM_BOND_UDEF_STEREO_COUNT>
0

> <PUBCHEM_ISOTOPIC_ATOM_COUNT>
0

> <PUBCHEM_COMPONENT_COUNT>
1

> <PUBCHEM_CACTVS_TAUTO_COUNT>
1

> <PUBCHEM_CONFORMER_ID>
00C42E6300000001

> <PUBCHEM_MMFF94_ENERGY>
11.0269

> <PUBCHEM_FEATURE_SELFOVERLAP>
5.074

> <PUBCHEM_SHAPE_FINGERPRINT>
12423570 1 16907513260699284118
12524768 44 18341903930968246615
13024252 1 14709417786618093456
14817 1 16543552346120836206
15775835 57 18411416258440299808
16945 1 18409732871741376760
21040471 1 18264490752998169124
21501502 16 18193272988312595029
21922407 69 16054308416475934979
23552423 10 18261395494706454511
23559900 14 18270976743123375788
2748010 2 18123752220971127936
5084963 1 18040989661598028824
528862 383 18335690607797193898

> <PUBCHEM_SHAPE_MULTIPOLES>
244.28
3.27
1.97
1.05
0.76
0.43
-0.18
-0.51
0.4
-0.56
0.13
0.02
-0.04
0.06

> <PUBCHEM_SHAPE_SELFOVERLAP>
512.841

> <PUBCHEM_SHAPE_VOLUME>
137

> <PUBCHEM_COORDINATE_TYPE>
2
5
10

$$$$
