69958
  -OEChem-07262316203D

  9  8  0     0  0  0  0  0  0999 V2000
   -1.3386   -0.6407   -0.0002 F   0  0  0  0  0  0  0  0  0  0  0  0
   -0.7946    0.6068    0.0003 C   0  0  0  0  0  0  0  0  0  0  0  0
    0.6973    0.5745   -0.0003 C   0  0  0  0  0  0  0  0  0  0  0  0
    1.4358   -0.5405    0.0002 C   0  0  0  0  0  0  0  0  0  0  0  0
   -1.1605    1.1287    0.8891 H   0  0  0  0  0  0  0  0  0  0  0  0
   -1.1612    1.1295   -0.8877 H   0  0  0  0  0  0  0  0  0  0  0  0
    1.2075    1.5341   -0.0011 H   0  0  0  0  0  0  0  0  0  0  0  0
    2.5188   -0.4809   -0.0003 H   0  0  0  0  0  0  0  0  0  0  0  0
    0.9819   -1.5250    0.0011 H   0  0  0  0  0  0  0  0  0  0  0  0
  1  2  1  0  0  0  0
  2  3  1  0  0  0  0
  2  5  1  0  0  0  0
  2  6  1  0  0  0  0
  3  4  2  0  0  0  0
  3  7  1  0  0  0  0
  4  8  1  0  0  0  0
  4  9  1  0  0  0  0
M  END
> <PUBCHEM_COMPOUND_CID>
69958

> <PUBCHEM_CONFORMER_RMSD>
0.4

> <PUBCHEM_CONFORMER_DIVERSEORDER>
1
2
3

> <PUBCHEM_MMFF94_PARTIAL_CHARGES>
7
1 -0.34
2 0.48
3 -0.29
4 -0.3
7 0.15
8 0.15
9 0.15

> <PUBCHEM_EFFECTIVE_ROTOR_COUNT>
1

> <PUBCHEM_PHARMACOPHORE_FEATURES>
1
1 4 hydrophobe

> <PUBCHEM_HEAVY_ATOM_COUNT>
4

> <PUBCHEM_ATOM_DEF_STEREO_COUNT>
0

> <PUBCHEM_ATOM_UDEF_STEREO_COUNT>
0

> <PUBCHEM_BOND_DEF_STEREO_COUNT>
0

> <PUBCHEM_BOND_UDEF_STEREO_COUNT>
0

> <PUBCHEM_ISOTOPIC_ATOM_COUNT>
0

> <PUBCHEM_COMPONENT_COUNT>
1

> <PUBCHEM_CACTVS_TAUTO_COUNT>
1

> <PUBCHEM_CONFORMER_ID>
0001114600000001

> <PUBCHEM_MMFF94_ENERGY>
-1.272

> <PUBCHEM_FEATURE_SELFOVERLAP>
5.074

> <PUBCHEM_SHAPE_FINGERPRINT>
139733 1 9295287244210772770
20096714 4 18335988558126098444
21015797 1 9367079838787785920
5943 1 14599363918240298752

> <PUBCHEM_SHAPE_MULTIPOLES>
75.04
1.77
0.92
0.59
0.12
0.01
0
-0.34
0
-0.07
0
0.04
0.02
0

> <PUBCHEM_SHAPE_SELFOVERLAP>
125.934

> <PUBCHEM_SHAPE_VOLUME>
51.1

> <PUBCHEM_COORDINATE_TYPE>
2
5
10

$$$$
