13196723
  -OEChem-07262316203D

 16 15  0     0  0  0  0  0  0999 V2000
   -1.7196    1.5527    0.4222 F   0  0  0  0  0  0  0  0  0  0  0  0
   -0.4495    0.3679    1.7298 F   0  0  0  0  0  0  0  0  0  0  0  0
   -0.0233    1.0939   -1.6747 F   0  0  0  0  0  0  0  0  0  0  0  0
    0.8812    2.0554    0.0509 F   0  0  0  0  0  0  0  0  0  0  0  0
   -0.7650   -1.8271    0.0953 F   0  0  0  0  0  0  0  0  0  0  0  0
   -1.9884   -0.6420   -1.2621 F   0  0  0  0  0  0  0  0  0  0  0  0
   -2.6463   -0.9683    0.7912 F   0  0  0  0  0  0  0  0  0  0  0  0
    1.4992   -1.0968   -1.2045 O   0  0  0  0  0  0  0  0  0  0  0  0
    3.4052   -0.9586    0.7147 O   0  0  0  0  0  0  0  0  0  0  0  0
    2.3664   -0.0212    0.6474 N   0  0  0  0  0  0  0  0  0  0  0  0
   -0.8432    0.5164    0.4344 C   0  0  0  0  0  0  0  0  0  0  0  0
    0.3842    0.8669   -0.3931 C   0  0  0  0  0  0  0  0  0  0  0  0
   -1.5638   -0.7426    0.0170 C   0  0  0  0  0  0  0  0  0  0  0  0
    1.4627   -0.1964   -0.3685 C   0  0  0  0  0  0  0  0  0  0  0  0
    2.2889    0.6400    1.4116 H   0  0  0  0  0  0  0  0  0  0  0  0
    4.1009   -0.4794    0.2333 H   0  0  0  0  0  0  0  0  0  0  0  0
  1 11  1  0  0  0  0
  2 11  1  0  0  0  0
  3 12  1  0  0  0  0
  4 12  1  0  0  0  0
  5 13  1  0  0  0  0
  6 13  1  0  0  0  0
  7 13  1  0  0  0  0
  8 14  2  0  0  0  0
  9 10  1  0  0  0  0
  9 16  1  0  0  0  0
 10 14  1  0  0  0  0
 10 15  1  0  0  0  0
 11 12  1  0  0  0  0
 11 13  1  0  0  0  0
 12 14  1  0  0  0  0
M  END
> <PUBCHEM_COMPOUND_CID>
13196723

> <PUBCHEM_CONFORMER_RMSD>
0.6

> <PUBCHEM_CONFORMER_DIVERSEORDER>
1
2
8
7
3
6
4
5

> <PUBCHEM_MMFF94_PARTIAL_CHARGES>
16
1 -0.34
10 -0.39
11 0.68
12 0.74
13 1.02
14 0.57
15 0.37
16 0.4
2 -0.34
3 -0.34
4 -0.34
5 -0.34
6 -0.34
7 -0.34
8 -0.57
9 -0.44

> <PUBCHEM_EFFECTIVE_ROTOR_COUNT>
4

> <PUBCHEM_PHARMACOPHORE_FEATURES>
2
1 10 donor
1 8 acceptor

> <PUBCHEM_HEAVY_ATOM_COUNT>
14

> <PUBCHEM_ATOM_DEF_STEREO_COUNT>
0

> <PUBCHEM_ATOM_UDEF_STEREO_COUNT>
0

> <PUBCHEM_BOND_DEF_STEREO_COUNT>
0

> <PUBCHEM_BOND_UDEF_STEREO_COUNT>
0

> <PUBCHEM_ISOTOPIC_ATOM_COUNT>
0

> <PUBCHEM_COMPONENT_COUNT>
1

> <PUBCHEM_CACTVS_TAUTO_COUNT>
3

> <PUBCHEM_CONFORMER_ID>
00C95DB300000001

> <PUBCHEM_MMFF94_ENERGY>
10.8712

> <PUBCHEM_FEATURE_SELFOVERLAP>
10.148

> <PUBCHEM_SHAPE_FINGERPRINT>
12423570 1 12649231157064177393
13024252 1 15213586624400163992
16945 1 18272090534293187487
20653085 51 12252191718885208742
21922407 69 17487362527202915080
23552423 10 17900271002236758871
241688 4 18053688891891690618
2748010 2 18055088570257140311
369184 2 17132111303784410098
5084963 1 17842030764798608403

> <PUBCHEM_SHAPE_MULTIPOLES>
220.48
3.29
1.58
1.23
1.5
0.28
-0.13
-1.31
0.76
-0.17
-0.07
-0.06
0.05
-0.09

> <PUBCHEM_SHAPE_SELFOVERLAP>
455.341

> <PUBCHEM_SHAPE_VOLUME>
125.3

> <PUBCHEM_COORDINATE_TYPE>
2
5
10

$$$$
