15186181
  -OEChem-07262316193D

  9  9  0     0  0  0  0  0  0999 V2000
   -1.4513    0.2450   -1.1209 F   0  0  0  0  0  0  0  0  0  0  0  0
   -1.4473   -1.3322    0.4489 F   0  0  0  0  0  0  0  0  0  0  0  0
    1.4499    0.2497   -1.1215 F   0  0  0  0  0  0  0  0  0  0  0  0
    1.4526   -1.3267    0.4490 F   0  0  0  0  0  0  0  0  0  0  0  0
   -0.0041    2.0115    0.5697 F   0  0  0  0  0  0  0  0  0  0  0  0
   -0.7497   -0.2561   -0.0488 C   0  0  0  0  0  0  0  0  0  0  0  0
    0.7510   -0.2534   -0.0486 C   0  0  0  0  0  0  0  0  0  0  0  0
   -0.0011    0.6622    0.8721 C   0  0  0  0  0  0  0  0  0  0  0  0
   -0.0010    0.4892    1.9358 H   0  0  0  0  0  0  0  0  0  0  0  0
  1  6  1  0  0  0  0
  2  6  1  0  0  0  0
  3  7  1  0  0  0  0
  4  7  1  0  0  0  0
  5  8  1  0  0  0  0
  6  7  1  0  0  0  0
  6  8  1  0  0  0  0
  7  8  1  0  0  0  0
  8  9  1  0  0  0  0
M  END
> <PUBCHEM_COMPOUND_CID>
15186181

> <PUBCHEM_CONFORMER_RMSD>
0.4

> <PUBCHEM_CONFORMER_DIVERSEORDER>
1

> <PUBCHEM_MMFF94_PARTIAL_CHARGES>
9
1 -0.23
2 -0.23
3 -0.23
4 -0.23
5 -0.23
6 0.46
7 0.46
8 0.13
9 0.1

> <PUBCHEM_EFFECTIVE_ROTOR_COUNT>
0.6

> <PUBCHEM_PHARMACOPHORE_FEATURES>
0

> <PUBCHEM_HEAVY_ATOM_COUNT>
8

> <PUBCHEM_ATOM_DEF_STEREO_COUNT>
0

> <PUBCHEM_ATOM_UDEF_STEREO_COUNT>
0

> <PUBCHEM_BOND_DEF_STEREO_COUNT>
0

> <PUBCHEM_BOND_UDEF_STEREO_COUNT>
0

> <PUBCHEM_ISOTOPIC_ATOM_COUNT>
0

> <PUBCHEM_COMPONENT_COUNT>
1

> <PUBCHEM_CACTVS_TAUTO_COUNT>
1

> <PUBCHEM_CONFORMER_ID>
00E7B90500000001

> <PUBCHEM_MMFF94_ENERGY>
10.2094

> <PUBCHEM_FEATURE_SELFOVERLAP>
0

> <PUBCHEM_SHAPE_FINGERPRINT>
137420 1 10437153386959810912
21040471 1 17192080652327933256
29004967 10 17773058533421507758
5943 1 8255095321141594832

> <PUBCHEM_SHAPE_MULTIPOLES>
128.27
1.59
1.43
0.99
0
0.48
-0.19
-0.55
-0.29
0
0.41
0
0.07
0

> <PUBCHEM_SHAPE_SELFOVERLAP>
256.295

> <PUBCHEM_SHAPE_VOLUME>
76.5

> <PUBCHEM_COORDINATE_TYPE>
2
5
10

$$$$
