70228
  -OEChem-07262316193D

 10  9  0     0  0  0  0  0  0999 V2000
    2.6713    0.9968    0.0012 F   0  0  0  0  0  0  0  0  0  0  0  0
    1.9445   -0.7562    1.0987 F   0  0  0  0  0  0  0  0  0  0  0  0
    1.9410   -0.7518   -1.1014 F   0  0  0  0  0  0  0  0  0  0  0  0
   -2.6715   -0.9966    0.0000 F   0  0  0  0  0  0  0  0  0  0  0  0
   -1.9409    0.7532   -1.1005 F   0  0  0  0  0  0  0  0  0  0  0  0
   -1.9444    0.7549    1.0997 F   0  0  0  0  0  0  0  0  0  0  0  0
    0.4579    0.5664    0.0009 O   0  0  0  0  0  0  0  0  0  0  0  0
   -0.4579   -0.5666    0.0002 O   0  0  0  0  0  0  0  0  0  0  0  0
    1.7570    0.0043    0.0006 C   0  0  0  0  0  0  0  0  0  0  0  0
   -1.7570   -0.0044    0.0006 C   0  0  0  0  0  0  0  0  0  0  0  0
  1  9  1  0  0  0  0
  2  9  1  0  0  0  0
  3  9  1  0  0  0  0
  4 10  1  0  0  0  0
  5 10  1  0  0  0  0
  6 10  1  0  0  0  0
  7  8  1  0  0  0  0
  7  9  1  0  0  0  0
  8 10  1  0  0  0  0
M  END
> <PUBCHEM_COMPOUND_CID>
70228

> <PUBCHEM_CONFORMER_RMSD>
0.6

> <PUBCHEM_CONFORMER_DIVERSEORDER>
1

> <PUBCHEM_MMFF94_PARTIAL_CHARGES>
10
1 -0.34
10 1.3
2 -0.34
3 -0.34
4 -0.34
5 -0.34
6 -0.34
7 -0.28
8 -0.28
9 1.3

> <PUBCHEM_EFFECTIVE_ROTOR_COUNT>
3

> <PUBCHEM_PHARMACOPHORE_FEATURES>
0

> <PUBCHEM_HEAVY_ATOM_COUNT>
10

> <PUBCHEM_ATOM_DEF_STEREO_COUNT>
0

> <PUBCHEM_ATOM_UDEF_STEREO_COUNT>
0

> <PUBCHEM_BOND_DEF_STEREO_COUNT>
0

> <PUBCHEM_BOND_UDEF_STEREO_COUNT>
0

> <PUBCHEM_ISOTOPIC_ATOM_COUNT>
0

> <PUBCHEM_COMPONENT_COUNT>
1

> <PUBCHEM_CACTVS_TAUTO_COUNT>
1

> <PUBCHEM_CONFORMER_ID>
0001125400000001

> <PUBCHEM_MMFF94_ENERGY>
5.0003

> <PUBCHEM_FEATURE_SELFOVERLAP>
0

> <PUBCHEM_SHAPE_FINGERPRINT>
12932764 1 18113340782021705730
14390081 3 17894344488418315092
21040471 1 17346594188334922214
23552423 10 18130798801909644350
24536 1 18131630067033354056
29004967 10 17704071802308493506
3248919 1 18059570269677203271
369184 2 18186514402132094441
5084963 1 18334576858173333971
5460574 1 9223239545703628803

> <PUBCHEM_SHAPE_MULTIPOLES>
150.41
3.99
0.95
0.94
0
0
0
0
0
0
0
0
0
0

> <PUBCHEM_SHAPE_SELFOVERLAP>
291.392

> <PUBCHEM_SHAPE_VOLUME>
92.2

> <PUBCHEM_COORDINATE_TYPE>
2
5
10

$$$$
