136733
  -OEChem-07262316193D

  9  9  0     0  0  0  0  0  0999 V2000
    1.6619   -0.2162    1.1117 F   0  0  0  0  0  0  0  0  0  0  0  0
    1.6601   -0.2198   -1.1135 F   0  0  0  0  0  0  0  0  0  0  0  0
   -0.6403    1.5482    1.1119 F   0  0  0  0  0  0  0  0  0  0  0  0
   -0.6429    1.5463   -1.1138 F   0  0  0  0  0  0  0  0  0  0  0  0
   -1.0201   -1.3303   -1.1108 F   0  0  0  0  0  0  0  0  0  0  0  0
   -1.0187   -1.3277    1.1148 F   0  0  0  0  0  0  0  0  0  0  0  0
    0.8590   -0.1129   -0.0005 C   0  0  0  0  0  0  0  0  0  0  0  0
   -0.3318    0.8002   -0.0008 C   0  0  0  0  0  0  0  0  0  0  0  0
   -0.5271   -0.6877    0.0010 C   0  0  0  0  0  0  0  0  0  0  0  0
  1  7  1  0  0  0  0
  2  7  1  0  0  0  0
  3  8  1  0  0  0  0
  4  8  1  0  0  0  0
  5  9  1  0  0  0  0
  6  9  1  0  0  0  0
  7  8  1  0  0  0  0
  7  9  1  0  0  0  0
  8  9  1  0  0  0  0
M  END
> <PUBCHEM_COMPOUND_CID>
136733

> <PUBCHEM_CONFORMER_RMSD>
0.4

> <PUBCHEM_CONFORMER_DIVERSEORDER>
1

> <PUBCHEM_MMFF94_PARTIAL_CHARGES>
9
1 -0.23
2 -0.23
3 -0.23
4 -0.23
5 -0.23
6 -0.23
7 0.46
8 0.46
9 0.46

> <PUBCHEM_EFFECTIVE_ROTOR_COUNT>
0.6

> <PUBCHEM_PHARMACOPHORE_FEATURES>
0

> <PUBCHEM_HEAVY_ATOM_COUNT>
9

> <PUBCHEM_ATOM_DEF_STEREO_COUNT>
0

> <PUBCHEM_ATOM_UDEF_STEREO_COUNT>
0

> <PUBCHEM_BOND_DEF_STEREO_COUNT>
0

> <PUBCHEM_BOND_UDEF_STEREO_COUNT>
0

> <PUBCHEM_ISOTOPIC_ATOM_COUNT>
0

> <PUBCHEM_COMPONENT_COUNT>
1

> <PUBCHEM_CACTVS_TAUTO_COUNT>
1

> <PUBCHEM_CONFORMER_ID>
0002161D00000001

> <PUBCHEM_MMFF94_ENERGY>
12.2708

> <PUBCHEM_FEATURE_SELFOVERLAP>
0

> <PUBCHEM_SHAPE_FINGERPRINT>
12423570 1 15035038275326839651
137420 1 13274719686789955585
21040471 1 17980205188280568840
29004967 10 17833299744783827530
5943 1 17458898241471122502

> <PUBCHEM_SHAPE_MULTIPOLES>
141.57
1.48
1.48
1.23
0.69
0.25
0
-0.25
0
-0.69
0
0
0
0

> <PUBCHEM_SHAPE_SELFOVERLAP>
287.397

> <PUBCHEM_SHAPE_VOLUME>
83.6

> <PUBCHEM_COORDINATE_TYPE>
2
5
10

$$$$
