70434
  -OEChem-07262316193D

  8  7  0     0  0  0  0  0  0999 V2000
    0.9222    0.0000    0.0000 Si  0  0  0  0  0  0  0  0  0  0  0  0
   -0.9222    0.0000    0.0000 C   0  0  0  0  0  0  0  0  0  0  0  0
    1.4388    1.2916    0.5196 H   0  0  0  0  0  0  0  0  0  0  0  0
    1.4388   -0.1958   -1.3783 H   0  0  0  0  0  0  0  0  0  0  0  0
    1.4388   -1.0957    0.8588 H   0  0  0  0  0  0  0  0  0  0  0  0
   -1.3179    0.8030   -0.6294 H   0  0  0  0  0  0  0  0  0  0  0  0
   -1.3178   -0.9465   -0.3807 H   0  0  0  0  0  0  0  0  0  0  0  0
   -1.3178    0.1435    1.0102 H   0  0  0  0  0  0  0  0  0  0  0  0
  1  2  1  0  0  0  0
  1  3  1  0  0  0  0
  1  4  1  0  0  0  0
  1  5  1  0  0  0  0
  2  6  1  0  0  0  0
  2  7  1  0  0  0  0
  2  8  1  0  0  0  0
M  END
> <PUBCHEM_COMPOUND_CID>
70434

> <PUBCHEM_CONFORMER_RMSD>
0.4

> <PUBCHEM_CONFORMER_DIVERSEORDER>
1

> <PUBCHEM_MMFF94_PARTIAL_CHARGES>
5
1 0.68
2 -0.08
3 -0.2
4 -0.2
5 -0.2

> <PUBCHEM_EFFECTIVE_ROTOR_COUNT>
0

> <PUBCHEM_PHARMACOPHORE_FEATURES>
0

> <PUBCHEM_HEAVY_ATOM_COUNT>
2

> <PUBCHEM_ATOM_DEF_STEREO_COUNT>
0

> <PUBCHEM_ATOM_UDEF_STEREO_COUNT>
0

> <PUBCHEM_BOND_DEF_STEREO_COUNT>
0

> <PUBCHEM_BOND_UDEF_STEREO_COUNT>
0

> <PUBCHEM_ISOTOPIC_ATOM_COUNT>
0

> <PUBCHEM_COMPONENT_COUNT>
1

> <PUBCHEM_CACTVS_TAUTO_COUNT>
1

> <PUBCHEM_CONFORMER_ID>
0001132200000001

> <PUBCHEM_MMFF94_ENERGY>
-0.0291

> <PUBCHEM_FEATURE_SELFOVERLAP>
0

> <PUBCHEM_SHAPE_FINGERPRINT>
139733 1 18338799026011108548
21015797 1 18050565437107671964

> <PUBCHEM_SHAPE_MULTIPOLES>
59.37
1.6
0.83
0.83
0.03
0
0
0
0
-0.14
0
-0.14
0
0

> <PUBCHEM_SHAPE_SELFOVERLAP>
74.185

> <PUBCHEM_SHAPE_VOLUME>
50.6

> <PUBCHEM_COORDINATE_TYPE>
2
5
10

$$$$
